1
    SWAT Sep 7    VER 2018/Rev 670                                                                       0/ 0/   0      0: 0: 0

    General Input/Output section (file.cio):                                        
    11/30/2022 2:01:14 PM HAWQS Interface                                           
                                                                                    
         Number of years in run:    5
         Area of watershed:    28475.419 km2
         Random number generator cycles: 0, use default numbers

         Initial random number seed: wet/dry day prob        748932582
         Initial random number seed: radiation              1948832765
         Initial random number seed: precipitation           857034417
         Initial random number seed: 0.5 hr rainfall          67377721
         Initial random number seed: wind speed              366304404
         Initial random number seed: irrigation             1094585182
         Initial random number seed: relative humidity      1767585417
         Initial random number seed: max temperature         608439319
         Initial random number seed: min temperature         592757081

         Precipitation data used in run:
          Multiple gages read for watershed
             Daily rainfall data used

         Temperature data used in run:
          Multiple gages read for watershed

         PET method used: Hargreaves

         Rainfall/Runoff/Routing Option:
          Daily rainfall data
          Runoff estimated with curve number method
          Daily stream routing
           Variable Storage routing method
           Channel dimensions remain constant
           Subbasin algae/CBOD loadings modeled
           In-stream nutrient transformations modeled using QUAL2E equations

         Subbasin Input Summary:
          Sub Latitude  Elev(m) #HRUs Ponds Elevbnds Wetlnd
            1    47.42   418.21   135          x       x
            2    47.42   411.93    76          x       x
            3    47.42   403.49   136   x      x       x
            4    47.42   377.34   101   x              x
            5    47.42   401.92    65                  x
            6    47.42   426.94   174   x      x       x
            7    47.42   427.28    59          x       x
            8    47.42   413.48    61   x      x       x

         HRU Input Summary Table 1:
          Sub   HRU   Area(ha) Slope SlpLgth(m) Ovrlnd_N CondII_CN TimeConc(hr) ESCO EPCO
            1      1    4570.16 0.030     101.01    0.100     51.71        2.338 0.80 1.00
            1      2    2627.43 0.013     134.68    0.100     51.71        2.022 0.80 1.00
            1      3    1797.05 0.023     101.01    0.100     51.71        1.442 0.80 1.00
            1      4    1967.59 0.034     101.01    0.100     51.71        1.428 0.80 1.00
            1      5     946.05 0.039     101.01    0.100     51.71        1.018 0.80 1.00
            1      6    1797.41 0.058      67.34    0.100     51.71        1.162 0.80 1.00
            1      7    2590.64 0.033     101.01    0.100     51.71        1.655 0.80 1.00
            1      8    1475.40 0.040     101.01    0.100     51.71        1.217 0.80 1.00
            1      9    1265.67 0.009     134.68    0.100     51.71        1.640 0.80 1.00
            1     10    1413.74 0.047     101.01    0.100     51.71        1.167 0.80 1.00
            1     11   15569.62 0.041     101.01    0.100     51.71        5.552 0.80 1.00
            1     12   10612.50 0.030     101.01    0.100     51.71        4.192 0.80 1.00
            1     13    2676.02 0.025     101.01    0.100     51.71        1.738 0.80 1.00
            1     14    1575.56 0.037     101.01    0.100     51.71        1.269 0.80 1.00
            1     15     878.43 0.046     101.01    0.100     51.71        0.963 0.80 1.00
            1     16    5535.15 0.035     101.01    0.100     51.71        2.620 0.80 1.00
            1     17    1608.78 0.109      67.34    0.100     51.71        1.022 0.80 1.00
            1     18    1053.40 0.021     101.01    0.100     51.71        1.181 0.80 1.00
            1     19     924.08 0.012     134.68    0.100     51.71        1.417 0.80 1.00
            1     20    1114.06 0.043     101.01    0.100     51.71        1.067 0.80 1.00
            1     21    1317.15 0.075      67.34    0.100     51.71        0.952 0.80 1.00
            1     22    1263.81 0.037     101.01    0.100     51.71        1.151 0.80 1.00
            1     23    1534.34 0.033     101.01    0.100     51.71        1.274 0.80 1.00
            1     24    1059.19 0.031     101.01    0.100     51.71        1.105 0.80 1.00
            1     25     873.64 0.024     101.01    0.100     51.71        1.082 0.80 1.00
            1     26    1080.16 0.045     101.01    0.100     51.71        1.046 0.80 1.00
            1     27    1276.60 0.033     101.01    0.100     51.71        1.177 0.80 1.00
            1     28    1464.50 0.060      67.34    0.100     51.71        1.034 0.80 1.00
            1     29     952.20 0.030     101.01    0.100     51.71        1.069 0.80 1.00
            1     30    4239.47 0.030     101.01    0.100     51.71        2.230 0.80 1.00
            1     31    1464.82 0.010     134.68    0.100     51.71        1.682 0.80 1.00
            1     32    1634.37 0.029     101.01    0.100     51.71        1.336 0.80 1.00
            1     33    1140.46 0.078      67.34    0.100     51.71        0.880 0.80 1.00
            1     34    1202.48 0.066      67.34    0.100     51.71        0.923 0.80 1.00
            1     35     870.07 0.025     101.01    0.100     51.71        1.072 0.80 1.00
            1     36    1307.07 0.014     134.68    0.100     51.71        1.521 0.80 1.00
            1     37    1253.91 0.037     101.01    0.100     51.71        1.147 0.80 1.00
            1     38    1939.34 0.055      67.34    0.100     51.71        1.220 0.80 1.00
            1     39     884.89 0.034     101.01    0.100     51.71        1.018 0.80 1.00
            1     40    1114.92 0.020     101.01    0.100     51.71        1.215 0.80 1.00
            1     41    1656.83 0.029     101.01    0.100     51.71        1.344 0.80 1.00
            1     42    1691.77 0.020     101.01    0.100     51.71        1.433 0.80 1.00
            1     43    2152.64 0.044     101.01    0.100     51.71        1.449 0.80 1.00
            1     44    1078.63 0.030     101.01    0.100     51.71        1.118 0.80 1.00
            1     45    1458.36 0.021     101.01    0.100     51.71        1.336 0.80 1.00
            1     46    1183.04 0.033     101.01    0.100     51.71        1.141 0.80 1.00
            1     47    1126.13 0.031     101.01    0.100     51.71        1.131 0.80 1.00
            1     48    2005.78 0.051      67.34    0.100     51.71        1.254 0.80 1.00
            1     49    3581.34 0.015     134.68    0.100     51.71        2.307 0.80 1.00
            1     50    1411.85 0.114      67.34    0.100     51.71        0.943 0.80 1.00
            1     51    1154.92 0.104      67.34    0.100     51.71        0.855 0.80 1.00
            1     52    1692.27 0.023     101.01    0.100     51.71        1.404 0.80 1.00
            1     53     905.51 0.018     134.68    0.100     51.71        1.296 0.80 1.00
            1     54    1431.60 0.026     101.01    0.100     51.71        1.282 0.80 1.00
            1     55    1350.19 0.022     101.01    0.100     51.71        1.285 0.80 1.00
            1     56    1470.79 0.031     101.01    0.100     51.71        1.262 0.80 1.00
            1     57    7415.18 0.028     101.01    0.100     51.71        3.249 0.80 1.00
            1     58    1322.57 0.017     134.68    0.100     51.71        1.473 0.80 1.00
            1     59    7039.88 0.041     101.01    0.100     51.71        3.063 0.80 1.00
            1     60    1261.60 0.040     101.01    0.100     51.71        1.136 0.80 1.00
            1     61    1101.95 0.025     101.01    0.100     51.71        1.163 0.80 1.00
            1     62    1302.32 0.075      67.34    0.100     51.71        0.947 0.80 1.00
            1     63    4022.46 0.042     101.01    0.100     51.71        2.097 0.80 1.00
            1     64    1034.51 0.129      26.94    0.100     51.71        0.650 0.80 1.00
            1     65    2303.75 0.079      67.34    0.100     51.71        1.308 0.80 1.00
            1     66    1810.88 0.047     101.01    0.100     51.71        1.314 0.80 1.00
            1     67    2520.98 0.067      67.34    0.100     51.71        1.403 0.80 1.00
            1     68     946.73 0.121      26.94    0.100     51.71        0.619 0.80 1.00
            1     69    2288.92 0.054      67.34    0.100     51.71        1.348 0.80 1.00
            1     70    9053.62 0.060      67.34    0.100     51.71        3.499 0.80 1.00
            1     71    4322.14 0.110      67.34    0.100     51.71        1.958 0.80 1.00
            1     72    2487.22 0.060      67.34    0.100     51.71        1.405 0.80 1.00
            1     73    4663.54 0.089      67.34    0.100     51.71        2.092 0.80 1.00
            1     74    1775.94 0.029     101.01    0.100     51.71        1.388 0.80 1.00
            1     75    1388.34 0.124      26.94    0.100     51.71        0.788 0.80 1.00
            1     76     990.35 0.057      67.34    0.100     51.71        0.859 0.80 1.00
            1     77    1138.43 0.092      67.34    0.100     51.71        0.861 0.80 1.00
            1     78    3832.98 0.052      67.34    0.100     51.71        1.882 0.80 1.00
            1     79    5239.58 0.069      67.34    0.100     51.71        2.306 0.80 1.00
            1     80    2539.69 0.098      67.34    0.100     51.71        1.368 0.80 1.00
            1     81    1242.16 0.033     101.01    0.100     35.00        1.164 0.80 1.00
            1     82    1478.11 0.039     101.01    0.100     35.00        1.223 0.80 1.00
            1     83    1088.34 0.047     101.01    0.100     35.00        1.042 0.80 1.00
            1     84    5530.90 0.044     101.01    0.100     35.00        2.578 0.80 1.00
            1     85    6082.89 0.036     101.01    0.100     35.00        2.788 0.80 1.00
            1     86    1436.75 0.036     101.01    0.100     35.00        1.222 0.80 1.00
            1     87    1596.22 0.024     101.01    0.100     35.00        1.359 0.80 1.00
            1     88    2718.10 0.042     101.01    0.100     35.00        1.656 0.80 1.00
            1     89    4425.02 0.038     101.01    0.100     35.00        2.247 0.80 1.00
            1     90    1037.90 0.034     101.01    0.100     35.00        1.079 0.80 1.00
            1     91    2114.31 0.034     101.01    0.100     35.00        1.481 0.80 1.00
            1     92    6311.88 0.033     101.01    0.100     35.00        2.876 0.80 1.00
            1     93     935.84 0.019     134.68    0.100     35.00        1.294 0.80 1.00
            1     94    1417.81 0.069      67.34    0.100     35.00        1.000 0.80 1.00
            1     95    3534.34 0.030     101.01    0.100     35.00        1.996 0.80 1.00
            1     96    1432.14 0.020     134.68    0.100     35.00        1.472 0.80 1.00
            1     97    1158.36 0.028     101.01    0.100     35.00        1.163 0.80 1.00
            1     98    1011.32 0.046     101.01    0.100     35.00        1.015 0.80 1.00
            1     99    1660.95 0.064      67.34    0.100     35.00        1.100 0.80 1.00
            1    100    1491.94 0.098      67.34    0.100     35.00        0.989 0.80 1.00
            1    101     913.69 0.062      67.34    0.100     35.00        0.818 0.80 1.00
            1    102     886.79 0.053      67.34    0.100     35.00        0.827 0.80 1.00
            1    103    1255.63 0.074      67.34    0.100     35.00        0.930 0.80 1.00
            1    104   22861.86 0.000     134.68    0.050     69.35        9.725 0.80 1.00
            1    105    1908.83 0.026     101.01    0.150     35.00        1.641 0.80 1.00
            1    106    1248.13 0.023     101.01    0.150     35.00        1.427 0.80 1.00
            1    107    1815.62 0.065      67.34    0.150     35.00        1.264 0.80 1.00
            1    108   91987.21 0.000     134.68    0.050     69.35       26.290 0.80 1.00
            1    109    1324.61 0.001     134.68    0.150     38.39        3.257 0.80 1.00
            1    110    3147.92 0.023     101.01    0.150     38.39        2.108 0.80 1.00
            1    111    1065.47 0.002     134.68    0.150     38.39        2.653 0.80 1.00
            1    112    1878.68 0.029     101.01    0.150     38.39        1.603 0.80 1.00
            1    113   12965.20 0.000     134.68    0.050     71.15        7.003 0.80 1.00
            1    114     194.36 0.001     134.68    0.010     72.08        0.635 0.80 1.00
            1    115    1800.80 0.047     101.01    0.100     35.00        1.310 0.80 1.00
            1    116    9255.85 0.029     101.01    0.100     35.00        3.798 0.80 1.00
            1    117    4574.95 0.037     101.01    0.100     35.00        2.301 0.80 1.00
            1    118    1222.59 0.038     101.01    0.100     35.00        1.130 0.80 1.00
            1    119    2352.29 0.036     101.01    0.100     35.00        1.555 0.80 1.00
            1    120    3698.55 0.035     101.01    0.100     35.00        2.022 0.80 1.00
            1    121     917.44 0.066      67.34    0.100     35.00        0.812 0.80 1.00
            1    122    1234.66 0.068      67.34    0.100     35.00        0.932 0.80 1.00
            1    123    3249.48 0.035     101.01    0.100     35.00        1.871 0.80 1.00
            1    124    1549.84 0.019     134.68    0.100     35.00        1.529 0.80 1.00
            1    125    1150.18 0.026     101.01    0.100     35.00        1.174 0.80 1.00
            1    126    3551.38 0.027     101.01    0.100     35.00        2.022 0.80 1.00
            1    127    1103.30 0.046     101.01    0.100     35.00        1.051 0.80 1.00
            1    128   26612.52 0.000     134.68    0.050     71.15       10.714 0.80 1.00
            1    129    1388.16 0.024     101.01    0.150     44.13        1.469 0.80 1.00
            1    130    4506.97 0.019     134.68    0.150     44.13        2.789 0.80 1.00
            1    131    1159.35 0.020     101.01    0.150     62.14        1.431 0.80 1.00
            1    132    1056.48 0.024     101.01    0.150     71.15        1.342 0.80 1.00
            1    133    1201.12 0.025     101.01    0.150     75.65        1.387 0.80 1.00
            1    134    1281.71 0.022     101.01    0.150     71.15        1.452 0.80 1.00
            1    135     953.06 0.033     101.01    0.150     71.15        1.222 0.80 1.00
            2    136    2125.77 0.023     101.01    0.100     51.71        1.201 0.80 1.00
            2    137    9447.55 0.035     101.01    0.100     51.71        2.490 0.80 1.00
            2    138    1241.69 0.068      67.34    0.100     51.71        0.710 0.80 1.00
            2    139     835.90 0.023     101.01    0.100     51.71        0.916 0.80 1.00
            2    140    1492.38 0.034     101.01    0.100     51.71        0.988 0.80 1.00
            2    141    4093.78 0.025     101.01    0.100     51.71        1.578 0.80 1.00
            2    142    1045.50 0.077      67.34    0.100     51.71        0.651 0.80 1.00
            2    143    1258.57 0.041     101.01    0.100     51.71        0.903 0.80 1.00
            2    144     766.77 0.128      26.94    0.100     51.71        0.396 0.80 1.00
            2    145    1229.16 0.005     134.68    0.100     51.71        1.613 0.80 1.00
            2    146    4010.12 0.024     101.01    0.100     51.71        1.570 0.80 1.00
            2    147    1479.00 0.017     134.68    0.100     51.71        1.270 0.80 1.00
            2    148    3274.35 0.023     101.01    0.100     51.71        1.435 0.80 1.00
            2    149   19569.76 0.036     101.01    0.100     51.71        4.161 0.80 1.00
            2    150    4866.17 0.041     101.01    0.100     51.71        1.633 0.80 1.00
            2    151    2998.01 0.040     101.01    0.100     51.71        1.274 0.80 1.00
            2    152    1380.57 0.030     101.01    0.100     51.71        0.987 0.80 1.00
            2    153    1045.91 0.028     101.01    0.100     51.71        0.925 0.80 1.00
            2    154    1743.08 0.031     101.01    0.100     51.71        1.060 0.80 1.00
            2    155    1501.53 0.017     134.68    0.100     51.71        1.275 0.80 1.00
            2    156    1055.36 0.016     134.68    0.100     51.71        1.191 0.80 1.00
            2    157    1872.25 0.025     101.01    0.100     51.71        1.130 0.80 1.00
            2    158    1239.16 0.039     101.01    0.100     51.71        0.907 0.80 1.00
            2    159    1080.83 0.047     101.01    0.100     51.71        0.839 0.80 1.00
            2    160    2820.56 0.026     101.01    0.100     51.71        1.319 0.80 1.00
            2    161     790.83 0.100      67.34    0.100     51.71        0.563 0.80 1.00
            2    162    1905.61 0.097      67.34    0.100     51.71        0.815 0.80 1.00
            2    163    2303.07 0.067      67.34    0.100     51.71        0.940 0.80 1.00
            2    164     750.56 0.080      67.34    0.100     51.71        0.578 0.80 1.00
            2    165     985.49 0.082      67.34    0.100     51.71        0.630 0.80 1.00
            2    166    7861.23 0.065      67.34    0.100     51.71        1.998 0.80 1.00
            2    167    6241.65 0.097      67.34    0.100     51.71        1.660 0.80 1.00
            2    168    1452.52 0.068      67.34    0.100     51.71        0.757 0.80 1.00
            2    169    1689.86 0.102      67.34    0.100     51.71        0.764 0.80 1.00
            2    170    1436.75 0.086      67.34    0.100     51.71        0.726 0.80 1.00
            2    171   14451.07 0.050     101.01    0.100     51.71        3.275 0.80 1.00
            2    172    6904.34 0.083      67.34    0.100     51.71        1.798 0.80 1.00
            2    173    5132.93 0.040     101.01    0.100     51.71        1.688 0.80 1.00
            2    174    3997.29 0.083      67.34    0.100     51.71        1.255 0.80 1.00
            2    175    4617.59 0.045     101.01    0.100     51.71        1.570 0.80 1.00
            2    176    6616.16 0.089      67.34    0.100     51.71        1.738 0.80 1.00
            2    177     803.36 0.027     101.01    0.100     51.71        0.876 0.80 1.00
            2    178    1010.85 0.028     101.01    0.100     51.71        0.917 0.80 1.00
            2    179    1235.33 0.034     101.01    0.100     51.71        0.931 0.80 1.00
            2    180    1753.23 0.032     101.01    0.150     71.15        1.228 0.80 1.00
            2    181     782.95 0.020     101.01    0.150     71.15        1.131 0.80 1.00
            2    182    1877.02 0.001     134.68    0.150     54.06        3.138 0.80 1.00
            2    183    1813.65 0.024     101.01    0.100     35.00        1.126 0.80 1.00
            2    184    2151.96 0.036     101.01    0.100     35.00        1.119 0.80 1.00
            2    185     868.02 0.026     101.01    0.100     35.00        0.898 0.80 1.00
            2    186    2767.17 0.023     101.01    0.100     35.00        1.333 0.80 1.00
            2    187    3393.50 0.026     101.01    0.100     35.00        1.433 0.80 1.00
            2    188    6710.68 0.033     101.01    0.100     35.00        2.014 0.80 1.00
            2    189     857.05 0.041     101.01    0.100     35.00        0.811 0.80 1.00
            2    190     900.71 0.043     101.01    0.100     35.00        0.813 0.80 1.00
            2    191    1273.81 0.118      67.34    0.100     35.00        0.657 0.80 1.00
            2    192     937.89 0.083      67.34    0.100     35.00        0.618 0.80 1.00
            2    193    2082.68 0.054      67.34    0.100     35.00        0.920 0.80 1.00
            2    194    2878.01 0.094      67.34    0.100     35.00        1.020 0.80 1.00
            2    195    1528.01 0.088      67.34    0.100     35.00        0.744 0.80 1.00
            2    196    2013.07 0.048     101.01    0.100     35.00        1.040 0.80 1.00
            2    197    1057.74 0.051      67.34    0.100     35.00        0.703 0.80 1.00
            2    198     984.22 0.094      67.34    0.100     35.00        0.615 0.80 1.00
            2    199    1747.17 0.023     101.01    0.100     43.09        1.120 0.80 1.00
            2    200     791.27 0.023     101.01    0.100     43.09        0.905 0.80 1.00
            2    201    1720.99 0.033     101.01    0.100     43.09        1.044 0.80 1.00
            2    202     873.08 0.051      67.34    0.100     43.09        0.660 0.80 1.00
            2    203    1752.26 0.093      67.34    0.100     43.09        0.787 0.80 1.00
            2    204    1575.90 0.047     101.01    0.100     43.09        0.950 0.80 1.00
            2    205     911.42 0.082      67.34    0.150     47.79        0.715 0.80 1.00
            2    206    1024.35 0.114      67.34    0.150     47.79        0.696 0.80 1.00
            2    207      83.08 0.001     134.68    0.010     72.08        0.558 0.80 1.00
            2    208   10127.59 0.000     134.68    0.050     71.15        4.766 0.80 1.00
            2    209   23274.11 0.000     134.68    0.050     71.15        6.907 0.80 1.00
            2    210   14232.26 0.000     134.68    0.050     69.35        5.459 0.80 1.00
            2    211   55770.74 0.000     134.68    0.050     69.35       11.661 0.80 1.00
            3    212    1718.35 0.012     134.68    0.100     60.33        1.540 0.80 1.00
            3    213     978.67 0.038     101.01    0.100     60.33        0.926 0.80 1.00
            3    214    3895.91 0.019     134.68    0.100     60.33        1.980 0.80 1.00
            3    215    5224.67 0.037     101.01    0.100     60.33        2.034 0.80 1.00
            3    216    5962.24 0.035     101.01    0.100     60.33        2.220 0.80 1.00
            3    217   20854.24 0.041     101.01    0.100     60.33        5.400 0.80 1.00
            3    218     836.74 0.018     134.68    0.100     60.33        1.172 0.80 1.00
            3    219    3167.84 0.020     101.01    0.100     60.33        1.647 0.80 1.00
            3    220    1222.87 0.018     134.68    0.100     60.33        1.286 0.80 1.00
            3    221     899.55 0.017     134.68    0.100     60.33        1.206 0.80 1.00
            3    222    1195.11 0.007     134.68    0.100     60.33        1.567 0.80 1.00
            3    223    2328.31 0.021     101.01    0.100     60.33        1.417 0.80 1.00
            3    224    1547.19 0.054      67.34    0.100     60.33        0.914 0.80 1.00
            3    225    6504.05 0.019     134.68    0.100     60.33        2.608 0.80 1.00
            3    226    1179.64 0.102      67.34    0.100     60.33        0.737 0.80 1.00
            3    227    1372.52 0.017     134.68    0.100     60.33        1.344 0.80 1.00
            3    228     956.64 0.116      67.34    0.100     60.33        0.658 0.80 1.00
            3    229     790.88 0.015     134.68    0.100     60.33        1.208 0.80 1.00
            3    230    1266.95 0.114      67.34    0.100     60.33        0.751 0.80 1.00
            3    231    1138.60 0.041     101.01    0.100     60.33        0.959 0.80 1.00
            3    232    3750.20 0.016     134.68    0.100     60.33        1.989 0.80 1.00
            3    233    6885.61 0.046     101.01    0.100     60.33        2.389 0.80 1.00
            3    234    1872.56 0.110      67.34    0.100     60.33        0.923 0.80 1.00
            3    235    2255.59 0.026     101.01    0.100     60.33        1.354 0.80 1.00
            3    236     826.83 0.142      26.94    0.100     60.33        0.467 0.80 1.00
            3    237    1351.06 0.025     101.01    0.100     60.33        1.113 0.80 1.00
            3    238    1707.80 0.081      67.34    0.100     60.33        0.911 0.80 1.00
            3    239    1163.11 0.019     134.68    0.100     60.33        1.255 0.80 1.00
            3    240     789.31 0.017     134.68    0.100     60.33        1.173 0.80 1.00
            3    241    1319.68 0.038     101.01    0.100     60.33        1.025 0.80 1.00
            3    242    4799.71 0.051      67.34    0.100     60.33        1.759 0.80 1.00
            3    243    1156.71 0.026     101.01    0.100     60.33        1.049 0.80 1.00
            3    244    1532.29 0.057      67.34    0.100     60.33        0.903 0.80 1.00
            3    245    8233.73 0.054      67.34    0.100     60.33        2.556 0.80 1.00
            3    246    4019.74 0.099      67.34    0.100     60.33        1.491 0.80 1.00
            3    247    1250.47 0.032     101.01    0.100     60.33        1.036 0.80 1.00
            3    248     960.31 0.031     101.01    0.100     60.33        0.957 0.80 1.00
            3    249     815.70 0.012     134.68    0.100     60.33        1.280 0.80 1.00
            3    250     814.29 0.019     134.68    0.100     60.33        1.151 0.80 1.00
            3    251    1500.60 0.034     101.01    0.100     60.33        1.096 0.80 1.00
            3    252    8761.37 0.038     101.01    0.100     60.33        2.851 0.80 1.00
            3    253     934.28 0.004     134.68    0.100     60.33        1.705 0.80 1.00
            3    254    1299.69 0.034     101.01    0.100     60.33        1.039 0.80 1.00
            3    255    2278.52 0.019     134.68    0.100     60.33        1.564 0.80 1.00
            3    256    1648.09 0.017     134.68    0.100     60.33        1.422 0.80 1.00
            3    257    1223.13 0.009     134.68    0.100     60.33        1.490 0.80 1.00
            3    258    1134.77 0.017     134.68    0.100     60.33        1.276 0.80 1.00
            3    259     821.00 0.008     134.68    0.100     60.33        1.411 0.80 1.00
            3    260    2992.17 0.059      67.34    0.100     60.33        1.290 0.80 1.00
            3    261    1390.62 0.038     101.01    0.100     60.33        1.045 0.80 1.00
            3    262     822.73 0.162      20.20    0.100     60.33        0.431 0.80 1.00
            3    263    1951.52 0.021     101.01    0.100     60.33        1.316 0.80 1.00
            3    264    4654.11 0.060      67.34    0.100     60.33        1.704 0.80 1.00
            3    265    5105.51 0.019     134.68    0.100     60.33        2.276 0.80 1.00
            3    266    1111.42 0.063      67.34    0.100     60.33        0.771 0.80 1.00
            3    267     831.18 0.023     101.01    0.100     60.33        0.978 0.80 1.00
            3    268    2272.07 0.015     134.68    0.100     60.33        1.626 0.80 1.00
            3    269    1608.79 0.034     101.01    0.100     60.33        1.126 0.80 1.00
            3    270    2060.03 0.038     101.01    0.100     60.33        1.230 0.80 1.00
            3    271     923.21 0.048     101.01    0.100     60.33        0.869 0.80 1.00
            3    272     922.06 0.023     101.01    0.100     60.33        1.005 0.80 1.00
            3    273    1016.82 0.019     134.68    0.100     60.33        1.212 0.80 1.00
            3    274    1637.28 0.101      67.34    0.100     60.33        0.867 0.80 1.00
            3    275    1949.79 0.031     101.01    0.100     60.33        1.237 0.80 1.00
            3    276    1683.87 0.067      67.34    0.100     60.33        0.926 0.80 1.00
            3    277    3070.71 0.024     101.01    0.100     60.33        1.583 0.80 1.00
            3    278    3219.84 0.093      67.34    0.100     60.33        1.296 0.80 1.00
            3    279    1162.53 0.060      67.34    0.100     60.33        0.792 0.80 1.00
            3    280    2772.11 0.039     101.01    0.100     60.33        1.414 0.80 1.00
            3    281    1231.63 0.015     134.68    0.100     60.33        1.338 0.80 1.00
            3    282    1057.27 0.106      67.34    0.100     60.33        0.697 0.80 1.00
            3    283    4502.10 0.047     101.01    0.100     60.33        1.818 0.80 1.00
            3    284    5447.77 0.030     101.01    0.100     60.33        2.127 0.80 1.00
            3    285    2220.80 0.015     134.68    0.100     60.33        1.612 0.80 1.00
            3    286     817.17 0.014     134.68    0.100     60.33        1.236 0.80 1.00
            3    287    1909.50 0.010     134.68    0.100     60.33        1.649 0.80 1.00
            3    288     758.04 0.007     134.68    0.100     60.33        1.438 0.80 1.00
            3    289     910.36 0.039     101.01    0.100     60.33        0.901 0.80 1.00
            3    290     838.37 0.022     101.01    0.100     60.33        0.989 0.80 1.00
            3    291     866.97 0.013     134.68    0.100     60.33        1.272 0.80 1.00
            3    292    1654.39 0.034     101.01    0.100     60.33        1.139 0.80 1.00
            3    293    1030.41 0.055      67.34    0.100     60.33        0.764 0.80 1.00
            3    294    1956.51 0.012     134.68    0.100     60.33        1.605 0.80 1.00
            3    295    1547.61 0.031     101.01    0.100     60.33        1.126 0.80 1.00
            3    296    1452.59 0.039     101.01    0.100     60.33        1.058 0.80 1.00
            3    297    1087.18 0.045     101.01    0.100     60.33        0.928 0.80 1.00
            3    298    2642.24 0.040     101.01    0.100     60.33        1.375 0.80 1.00
            3    299     918.54 0.020     101.01    0.100     60.33        1.034 0.80 1.00
            3    300     915.29 0.027     101.01    0.100     60.33        0.971 0.80 1.00
            3    301     963.77 0.011     134.68    0.100     60.33        1.351 0.80 1.00
            3    302    4977.12 0.042     101.01    0.100     57.20        1.952 0.80 1.00
            3    303    3337.79 0.040     101.01    0.100     57.20        1.555 0.80 1.00
            3    304    1911.39 0.021     101.01    0.100     57.20        1.305 0.80 1.00
            3    305   12474.32 0.048     101.01    0.100     57.20        3.628 0.80 1.00
            3    306    1276.76 0.070      67.34    0.100     57.20        0.806 0.80 1.00
            3    307    2444.27 0.031     101.01    0.100     57.20        1.370 0.80 1.00
            3    308    1456.52 0.105      67.34    0.100     57.20        0.813 0.80 1.00
            3    309     814.29 0.121      26.94    0.100     57.20        0.472 0.80 1.00
            3    310     934.44 0.116      67.34    0.100     57.20        0.652 0.80 1.00
            3    311     789.41 0.055      67.34    0.100     57.20        0.692 0.80 1.00
            3    312    2392.54 0.055      67.34    0.100     57.20        1.142 0.80 1.00
            3    313     874.42 0.088      67.34    0.100     57.20        0.662 0.80 1.00
            3    314    2263.78 0.052      67.34    0.100     57.20        1.114 0.80 1.00
            3    315    2229.56 0.057      67.34    0.100     57.20        1.094 0.80 1.00
            3    316     969.07 0.107      67.34    0.100     57.20        0.670 0.80 1.00
            3    317    1264.48 0.036     101.01    0.100     57.20        1.019 0.80 1.00
            3    318     878.93 0.038     101.01    0.100     57.20        0.896 0.80 1.00
            3    319     934.28 0.020     134.68    0.100     57.20        1.174 0.80 1.00
            3    320     794.98 0.063      67.34    0.100     57.20        0.677 0.80 1.00
            3    321    2859.68 0.033     101.01    0.100     54.85        1.467 0.80 1.00
            3    322    1278.07 0.031     101.01    0.100     54.85        1.050 0.80 1.00
            3    323    1667.08 0.043     101.01    0.100     54.85        1.101 0.80 1.00
            3    324  179849.02 0.000     134.68    0.050     69.35       34.520 0.80 1.00
            3    325     134.38 0.001     134.68    0.010     72.08        0.586 0.80 1.00
            3    326    1729.58 0.049     101.01    0.150     61.90        1.248 0.80 1.00
            3    327     831.65 0.006     134.68    0.150     61.90        1.854 0.80 1.00
            3    328    1972.41 0.040     101.01    0.150     57.98        1.358 0.80 1.00
            3    329   11015.49 0.046     101.01    0.150     57.98        3.473 0.80 1.00
            3    330    1781.15 0.031     101.01    0.150     57.98        1.365 0.80 1.00
            3    331    1422.31 0.038     101.01    0.150     57.98        1.217 0.80 1.00
            3    332     850.17 0.049     101.01    0.150     57.98        0.995 0.80 1.00
            3    333    1591.74 0.052      67.34    0.150     57.98        1.048 0.80 1.00
            3    334    1039.02 0.084      67.34    0.150     57.98        0.818 0.80 1.00
            3    335     970.96 0.036     101.01    0.150     57.98        1.099 0.80 1.00
            3    336    1952.73 0.056      67.34    0.150     57.98        1.136 0.80 1.00
            3    337    3491.58 0.059      67.34    0.150     57.98        1.529 0.80 1.00
            3    338    1831.63 0.088      67.34    0.150     57.98        1.035 0.80 1.00
            3    339   26164.59 0.000     134.68    0.050     71.15        8.645 0.80 1.00
            3    340   24461.77 0.000     134.68    0.050     69.35        8.309 0.80 1.00
            3    341    2803.17 0.000     134.68    0.050     71.15        3.600 0.80 1.00
            3    342     777.92 0.020     134.68    0.140     77.45        1.318 0.80 1.00
            3    343    1194.96 0.028     101.01    0.150     75.65        1.225 0.80 1.00
            3    344     904.80 0.037     101.01    0.150     71.15        1.073 0.80 1.00
            3    345    1039.02 0.040     101.01    0.150     62.14        1.095 0.80 1.00
            3    346     810.19 0.016     134.68    0.150     44.13        1.448 0.80 1.00
            3    347    1224.60 0.032     101.01    0.150     44.13        1.201 0.80 1.00
            4    348    1205.43 0.004     134.68    0.150     61.90        2.264 0.80 1.00
            4    349    3221.16 0.022     101.01    0.100     60.33        1.869 0.80 1.00
            4    350    2933.31 0.017     134.68    0.100     60.33        1.976 0.80 1.00
            4    351    5288.78 0.090      67.34    0.100     60.33        2.164 0.80 1.00
            4    352    9088.87 0.030     101.01    0.100     60.33        3.535 0.80 1.00
            4    353    1353.94 0.025     101.01    0.100     60.33        1.221 0.80 1.00
            4    354    1994.41 0.036     101.01    0.100     60.33        1.372 0.80 1.00
            4    355    5482.28 0.063      67.34    0.100     60.33        2.262 0.80 1.00
            4    356    1818.34 0.013     134.68    0.100     60.33        1.683 0.80 1.00
            4    357    1673.02 0.027     101.01    0.100     60.33        1.317 0.80 1.00
            4    358    2548.53 0.044     101.01    0.100     60.33        1.521 0.80 1.00
            4    359    3272.57 0.025     101.01    0.100     60.33        1.859 0.80 1.00
            4    360    8586.16 0.039     101.01    0.100     60.33        3.346 0.80 1.00
            4    361    3537.49 0.020     134.68    0.100     60.33        2.125 0.80 1.00
            4    362    1718.01 0.010     134.68    0.100     60.33        1.728 0.80 1.00
            4    363    3763.62 0.073      67.34    0.100     60.33        1.723 0.80 1.00
            4    364    1388.36 0.040     101.01    0.100     60.33        1.145 0.80 1.00
            4    365    1575.00 0.054      67.34    0.100     60.33        1.044 0.80 1.00
            4    366    1520.84 0.017     134.68    0.100     60.33        1.505 0.80 1.00
            4    367    1899.15 0.024     101.01    0.100     60.33        1.418 0.80 1.00
            4    368    1227.01 0.008     134.68    0.100     60.33        1.629 0.80 1.00
            4    369    4426.32 0.040     101.01    0.100     60.33        2.129 0.80 1.00
            4    370    1569.50 0.111      67.34    0.100     60.33        0.961 0.80 1.00
            4    371    8863.92 0.070      67.34    0.100     60.33        3.222 0.80 1.00
            4    372    5119.61 0.101      67.34    0.100     60.33        2.101 0.80 1.00
            4    373    1875.04 0.079      67.34    0.100     60.33        1.102 0.80 1.00
            4    374    1291.26 0.005     134.68    0.100     60.33        1.822 0.80 1.00
            4    375    1316.29 0.042     101.01    0.100     60.33        1.111 0.80 1.00
            4    376    2156.68 0.035     101.01    0.100     60.33        1.432 0.80 1.00
            4    377    2222.12 0.030     101.01    0.100     60.33        1.482 0.80 1.00
            4    378    2881.85 0.024     101.01    0.100     60.33        1.742 0.80 1.00
            4    379    4481.88 0.060      67.34    0.100     60.33        1.967 0.80 1.00
            4    380    3033.38 0.106      67.34    0.100     60.33        1.452 0.80 1.00
            4    381    4770.00 0.017     134.68    0.100     60.33        2.547 0.80 1.00
            4    382    2938.81 0.010     134.68    0.100     60.33        2.132 0.80 1.00
            4    383    2369.27 0.016     134.68    0.100     60.33        1.809 0.80 1.00
            4    384    2826.77 0.025     101.01    0.100     60.33        1.716 0.80 1.00
            4    385    1985.20 0.067      67.34    0.100     60.33        1.158 0.80 1.00
            4    386    1193.24 0.044     101.01    0.100     60.33        1.059 0.80 1.00
            4    387    6312.15 0.018     134.68    0.100     60.33        2.989 0.80 1.00
            4    388    1392.25 0.060      67.34    0.100     60.33        0.967 0.80 1.00
            4    389    3873.08 0.034     101.01    0.100     60.33        1.988 0.80 1.00
            4    390    1679.44 0.074      67.34    0.100     60.33        1.043 0.80 1.00
            4    391    2032.98 0.052      67.34    0.100     60.33        1.205 0.80 1.00
            4    392    5567.02 0.036     101.01    0.100     60.33        2.491 0.80 1.00
            4    393    3085.01 0.020     101.01    0.100     60.33        1.846 0.80 1.00
            4    394    1867.92 0.065      67.34    0.100     60.33        1.122 0.80 1.00
            4    395    1463.88 0.117      67.34    0.100     60.33        0.919 0.80 1.00
            4    396    6577.72 0.028     101.01    0.100     60.33        2.834 0.80 1.00
            4    397    1727.18 0.013     134.68    0.100     60.33        1.651 0.80 1.00
            4    398   10829.37 0.019     134.68    0.100     60.33        4.247 0.80 1.00
            4    399    3809.26 0.103      67.34    0.100     60.33        1.699 0.80 1.00
            4    400    1269.46 0.140      26.94    0.100     60.33        0.699 0.80 1.00
            4    401    6793.28 0.073      67.34    0.100     60.33        2.629 0.80 1.00
            4    402    4387.97 0.033     101.01    0.100     60.33        2.152 0.80 1.00
            4    403    5928.07 0.052      67.34    0.100     60.33        2.417 0.80 1.00
            4    404    1771.52 0.104      67.34    0.100     60.33        1.037 0.80 1.00
            4    405    1623.44 0.023     101.01    0.100     60.33        1.332 0.80 1.00
            4    406    1411.07 0.016     134.68    0.100     60.33        1.483 0.80 1.00
            4    407    2512.28 0.049     101.01    0.100     60.33        1.491 0.80 1.00
            4    408    2887.14 0.076      67.34    0.100     60.33        1.441 0.80 1.00
            4    409    7345.83 0.126      26.94    0.100     60.33        2.593 0.80 1.00
            4    410    1274.27 0.077      67.34    0.100     60.33        0.896 0.80 1.00
            4    411    2686.04 0.086      67.34    0.100     60.33        1.362 0.80 1.00
            4    412    1439.55 0.024     101.01    0.100     60.33        1.260 0.80 1.00
            4    413    3674.77 0.022     101.01    0.100     60.33        2.012 0.80 1.00
            4    414    1247.19 0.061      67.34    0.100     60.33        0.914 0.80 1.00
            4    415    3380.46 0.035     101.01    0.100     60.33        1.828 0.80 1.00
            4    416    5201.33 0.033     101.01    0.100     60.33        2.398 0.80 1.00
            4    417    1239.63 0.054      67.34    0.100     60.33        0.926 0.80 1.00
            4    418   97616.47 0.000     134.68    0.050     69.35       25.897 0.80 1.00
            4    419    1727.18 0.027     101.01    0.150     71.15        1.517 0.80 1.00
            4    420    2097.72 0.038     101.01    0.150     71.15        1.561 0.80 1.00
            4    421    1457.02 0.017     134.68    0.150     62.14        1.730 0.80 1.00
            4    422    1508.87 0.025     101.01    0.150     62.14        1.461 0.80 1.00
            4    423    2559.10 0.031     101.01    0.150     71.15        1.761 0.80 1.00
            4    424    5346.87 0.019     134.68    0.150     71.15        2.930 0.80 1.00
            4    425    1200.80 0.064      67.34    0.150     62.14        1.001 0.80 1.00
            4    426    1802.27 0.026     101.01    0.150     44.13        1.552 0.80 1.00
            4    427    1417.75 0.043     101.01    0.150     62.14        1.300 0.80 1.00
            4    428    1283.92 0.036     101.01    0.150     44.13        1.293 0.80 1.00
            4    429    1484.10 0.028     101.01    0.150     44.13        1.424 0.80 1.00
            4    430    1890.19 0.018     134.68    0.150     71.15        1.860 0.80 1.00
            4    431    2823.10 0.030     101.01    0.150     71.15        1.855 0.80 1.00
            4    432   38836.12 0.000     134.68    0.050     71.15       13.093 0.80 1.00
            4    433     486.15 0.000     134.68    0.010     72.08        1.277 0.80 1.00
            4    434   13426.65 0.000     134.68    0.050     69.35        6.844 0.80 1.00
            4    435    1481.57 0.003     134.68    0.100     35.00        2.104 0.80 1.00
            4    436    2507.69 0.010     134.68    0.100     64.84        1.993 0.80 1.00
            4    437    1288.99 0.032     101.01    0.100     64.84        1.150 0.80 1.00
            4    438    7357.49 0.000     134.68    0.050     71.15        5.176 0.80 1.00
            4    439    1260.51 0.035     101.01    0.140     76.55        1.259 0.80 1.00
            4    440    1726.26 0.002     134.68    0.140     52.50        2.767 0.80 1.00
            4    441    2193.42 0.033     101.01    0.060     56.41        1.291 0.80 1.00
            4    442    1833.24 0.013     134.68    0.060     56.41        1.431 0.80 1.00
            4    443    1291.96 0.010     134.68    0.140     65.03        1.815 0.80 1.00
            4    444    1372.28 0.005     134.68    0.140     65.03        2.141 0.80 1.00
            4    445    4007.39 0.033     101.01    0.140     65.03        2.174 0.80 1.00
            4    446    3271.21 0.013     134.68    0.140     65.03        2.377 0.80 1.00
            4    447    2344.68 0.011     134.68    0.140     65.03        2.138 0.80 1.00
            4    448    1187.96 0.039     101.01    0.140     65.03        1.210 0.80 1.00
            5    449    1419.99 0.116      67.34    0.100     60.33        0.735 0.80 1.00
            5    450    2831.76 0.084      67.34    0.100     60.33        1.101 0.80 1.00
            5    451    1507.90 0.041     101.01    0.100     60.33        1.004 0.80 1.00
            5    452    1852.76 0.027     101.01    0.100     60.33        1.165 0.80 1.00
            5    453    1812.00 0.047     101.01    0.100     60.33        1.054 0.80 1.00
            5    454    1182.34 0.079      67.34    0.100     60.33        0.716 0.80 1.00
            5    455    2770.47 0.027     101.01    0.100     60.33        1.378 0.80 1.00
            5    456    3319.03 0.036     101.01    0.100     60.33        1.447 0.80 1.00
            5    457    4321.42 0.030     101.01    0.100     60.33        1.700 0.80 1.00
            5    458    2338.05 0.049     101.01    0.100     60.33        1.171 0.80 1.00
            5    459    1029.21 0.005     134.68    0.100     60.33        1.600 0.80 1.00
            5    460    1071.38 0.024     101.01    0.100     60.33        0.995 0.80 1.00
            5    461    1351.18 0.032     101.01    0.100     60.33        1.010 0.80 1.00
            5    462    1839.89 0.025     101.01    0.100     60.33        1.177 0.80 1.00
            5    463    2137.22 0.055      67.34    0.100     60.33        0.991 0.80 1.00
            5    464     940.22 0.021     101.01    0.100     60.33        0.989 0.80 1.00
            5    465    1493.42 0.061      67.34    0.100     60.33        0.824 0.80 1.00
            5    466    1290.79 0.090      67.34    0.100     60.33        0.729 0.80 1.00
            5    467    1011.53 0.102      67.34    0.100     60.33        0.645 0.80 1.00
            5    468    1316.89 0.069      67.34    0.100     60.33        0.765 0.80 1.00
            5    469    2887.14 0.046     101.01    0.100     60.33        1.308 0.80 1.00
            5    470    3237.00 0.084      67.34    0.100     60.33        1.192 0.80 1.00
            5    471     941.13 0.036     101.01    0.100     60.33        0.884 0.80 1.00
            5    472    1055.12 0.036     101.01    0.100     60.33        0.913 0.80 1.00
            5    473     902.52 0.042     101.01    0.100     60.33        0.846 0.80 1.00
            5    474    1312.43 0.037     101.01    0.100     60.33        0.973 0.80 1.00
            5    475    1490.39 0.045     101.01    0.100     60.33        0.983 0.80 1.00
            5    476    2093.97 0.041     101.01    0.100     60.33        1.144 0.80 1.00
            5    477    2140.42 0.024     101.01    0.100     60.33        1.257 0.80 1.00
            5    478    3309.02 0.027     101.01    0.100     60.33        1.500 0.80 1.00
            5    479    5754.80 0.034     101.01    0.100     60.33        1.980 0.80 1.00
            5    480    1261.68 0.023     101.01    0.100     60.33        1.052 0.80 1.00
            5    481    4250.85 0.035     101.01    0.100     60.33        1.656 0.80 1.00
            5    482    7703.16 0.054      67.34    0.100     60.33        2.182 0.80 1.00
            5    483    4685.76 0.033     101.01    0.100     60.33        1.761 0.80 1.00
            5    484    1736.08 0.108      67.34    0.100     60.33        0.819 0.80 1.00
            5    485    2253.00 0.090      67.34    0.100     60.33        0.961 0.80 1.00
            5    486    2920.01 0.022     101.01    0.100     60.33        1.454 0.80 1.00
            5    487    7315.06 0.028     101.01    0.100     60.33        2.336 0.80 1.00
            5    488    3220.57 0.059      67.34    0.100     60.33        1.230 0.80 1.00
            5    489    1070.84 0.040     101.01    0.100     60.33        0.898 0.80 1.00
            5    490    2842.11 0.036     101.01    0.100     60.33        1.340 0.80 1.00
            5    491    7221.44 0.021     101.01    0.100     60.33        2.375 0.80 1.00
            5    492    1915.10 0.035     101.01    0.100     60.33        1.130 0.80 1.00
            5    493    1970.51 0.054      67.34    0.100     60.33        0.954 0.80 1.00
            5    494    2263.37 0.019     134.68    0.100     60.33        1.473 0.80 1.00
            5    495    1014.02 0.043     101.01    0.100     60.33        0.871 0.80 1.00
            5    496    1605.81 0.028     101.01    0.100     60.33        1.098 0.80 1.00
            5    497    1313.13 0.012     134.68    0.100     60.33        1.372 0.80 1.00
            5    498    3802.34 0.019     134.68    0.100     60.33        1.819 0.80 1.00
            5    499    1314.38 0.022     101.01    0.100     60.33        1.075 0.80 1.00
            5    500    1240.59 0.024     101.01    0.100     60.33        1.038 0.80 1.00
            5    501    2509.40 0.067      67.34    0.100     60.33        1.053 0.80 1.00
            5    502    1359.78 0.036     101.01    0.100     60.33        0.990 0.80 1.00
            5    503     970.97 0.058      67.34    0.100     57.20        0.698 0.80 1.00
            5    504     949.70 0.042     101.01    0.100     57.20        0.859 0.80 1.00
            5    505    1059.05 0.093      67.34    0.100     57.20        0.667 0.80 1.00
            5    506    1109.26 0.062      67.34    0.100     57.20        0.725 0.80 1.00
            5    507    1205.74 0.033     101.01    0.100     57.20        0.968 0.80 1.00
            5    508    4673.32 0.000     134.68    0.050     71.15        3.905 0.80 1.00
            5    509      52.66 0.001     134.68    0.010     72.08        0.551 0.80 1.00
            5    510   10480.36 0.000     134.68    0.050     69.35        5.075 0.80 1.00
            5    511    1304.74 0.001     134.68    0.150     54.06        3.054 0.80 1.00
            5    512   32287.78 0.000     134.68    0.050     69.35        8.943 0.80 1.00
            5    513    8933.05 0.000     134.68    0.050     71.15        4.774 0.80 1.00
            6    514    1842.61 0.082      67.34    0.100     51.71        0.983 0.80 1.00
            6    515    7559.55 0.094      67.34    0.100     51.71        2.464 0.80 1.00
            6    516   13784.03 0.063      67.34    0.100     51.71        3.968 0.80 1.00
            6    517    1172.54 0.003     134.68    0.100     51.71        1.925 0.80 1.00
            6    518    3712.54 0.065      67.34    0.100     51.71        1.529 0.80 1.00
            6    519    2637.41 0.066      67.34    0.100     51.71        1.234 0.80 1.00
            6    520    1089.90 0.097      67.34    0.100     51.71        0.739 0.80 1.00
            6    521    1350.96 0.035     101.01    0.100     51.71        1.076 0.80 1.00
            6    522    2431.08 0.090      67.34    0.100     51.71        1.141 0.80 1.00
            6    523    3708.39 0.033     101.01    0.100     51.71        1.751 0.80 1.00
            6    524    1133.91 0.070      67.34    0.100     51.71        0.789 0.80 1.00
            6    525    2771.82 0.069      67.34    0.100     51.71        1.266 0.80 1.00
            6    526    1838.86 0.085      67.34    0.100     51.71        0.978 0.80 1.00
            6    527    1783.48 0.036     101.01    0.100     51.71        1.200 0.80 1.00
            6    528    4147.09 0.052      67.34    0.100     51.71        1.671 0.80 1.00
            6    529    3173.27 0.098      67.34    0.100     51.71        1.337 0.80 1.00
            6    530    1535.76 0.117      67.34    0.100     51.71        0.855 0.80 1.00
            6    531    3160.73 0.057      67.34    0.100     51.71        1.396 0.80 1.00
            6    532    1831.70 0.088      67.34    0.100     51.71        0.972 0.80 1.00
            6    533    1228.90 0.042     101.01    0.100     51.71        1.007 0.80 1.00
            6    534    2242.09 0.024     101.01    0.100     51.71        1.410 0.80 1.00
            6    535    2709.29 0.043     101.01    0.100     51.71        1.432 0.80 1.00
            6    536    1074.34 0.027     101.01    0.100     51.71        1.041 0.80 1.00
            6    537    3641.86 0.040     101.01    0.100     51.71        1.698 0.80 1.00
            6    538    2044.55 0.060      67.34    0.100     51.71        1.078 0.80 1.00
            6    539    1640.53 0.094      67.34    0.100     51.71        0.909 0.80 1.00
            6    540    2084.61 0.063      67.34    0.100     51.71        1.083 0.80 1.00
            6    541    5072.10 0.035     101.01    0.100     51.71        2.096 0.80 1.00
            6    542    1406.34 0.034     101.01    0.100     51.71        1.098 0.80 1.00
            6    543    1081.11 0.039     101.01    0.100     51.71        0.974 0.80 1.00
            6    544    1609.06 0.026     101.01    0.100     51.71        1.210 0.80 1.00
            6    545    1547.12 0.029     101.01    0.100     51.71        1.170 0.80 1.00
            6    546    4761.84 0.070      67.34    0.100     51.71        1.795 0.80 1.00
            6    547    1286.25 0.083      67.34    0.100     51.71        0.816 0.80 1.00
            6    548    1797.41 0.086      67.34    0.100     51.71        0.965 0.80 1.00
            6    549    5426.53 0.019     134.68    0.100     51.71        2.447 0.80 1.00
            6    550    3375.61 0.117      67.34    0.100     51.71        1.374 0.80 1.00
            6    551    1666.02 0.039     101.01    0.100     51.71        1.151 0.80 1.00
            6    552    1322.46 0.061      67.34    0.100     51.71        0.863 0.80 1.00
            6    553    3483.74 0.027     101.01    0.100     51.71        1.729 0.80 1.00
            6    554    1062.38 0.072      67.34    0.100     51.71        0.763 0.80 1.00
            6    555    1912.12 0.018     134.68    0.100     51.71        1.517 0.80 1.00
            6    556    2373.53 0.068      67.34    0.100     51.71        1.157 0.80 1.00
            6    557    1562.63 0.034     101.01    0.100     51.71        1.145 0.80 1.00
            6    558    2937.50 0.036     101.01    0.100     51.71        1.526 0.80 1.00
            6    559    3083.67 0.017     134.68    0.100     51.71        1.861 0.80 1.00
            6    560    6332.03 0.022     101.01    0.100     51.71        2.506 0.80 1.00
            6    561    3137.46 0.054      67.34    0.100     51.71        1.396 0.80 1.00
            6    562    1431.43 0.040     101.01    0.100     51.71        1.077 0.80 1.00
            6    563    6721.77 0.044     101.01    0.100     51.71        2.472 0.80 1.00
            6    564    2038.77 0.060      67.34    0.100     51.71        1.076 0.80 1.00
            6    565    4540.39 0.027     101.01    0.100     51.71        2.008 0.80 1.00
            6    566    6934.42 0.017     134.68    0.100     51.71        2.854 0.80 1.00
            6    567    3684.88 0.011     134.68    0.100     51.71        2.149 0.80 1.00
            6    568    2003.35 0.046     101.01    0.100     51.71        1.221 0.80 1.00
            6    569    1169.33 0.028     101.01    0.100     51.71        1.063 0.80 1.00
            6    570    1443.39 0.032     101.01    0.100     51.71        1.121 0.80 1.00
            6    571    1201.39 0.038     101.01    0.100     51.71        1.016 0.80 1.00
            6    572    3680.68 0.032     101.01    0.100     51.71        1.749 0.80 1.00
            6    573    1581.15 0.026     101.01    0.100     51.71        1.202 0.80 1.00
            6    574    1212.55 0.028     101.01    0.100     51.71        1.076 0.80 1.00
            6    575    5630.68 0.038     101.01    0.100     51.71        2.224 0.80 1.00
            6    576    2183.36 0.036     101.01    0.100     51.71        1.315 0.80 1.00
            6    577    1115.78 0.081      67.34    0.100     51.71        0.767 0.80 1.00
            6    578    1151.84 0.044     101.01    0.100     51.71        0.975 0.80 1.00
            6    579    6300.96 0.034     101.01    0.100     51.71        2.413 0.80 1.00
            6    580    3086.04 0.027     101.01    0.100     51.71        1.621 0.80 1.00
            6    581    2162.26 0.025     101.01    0.100     51.71        1.379 0.80 1.00
            6    582    2328.53 0.046     101.01    0.100     51.71        1.314 0.80 1.00
            6    583    1167.95 0.021     101.01    0.100     51.71        1.121 0.80 1.00
            6    584    2532.64 0.038     101.01    0.100     51.71        1.404 0.80 1.00
            6    585    1241.25 0.038     101.01    0.100     51.71        1.028 0.80 1.00
            6    586    1218.33 0.068      67.34    0.100     51.71        0.818 0.80 1.00
            6    587    3019.55 0.058      67.34    0.100     51.71        1.355 0.80 1.00
            6    588    2086.59 0.020     134.68    0.100     51.71        1.540 0.80 1.00
            6    589    1242.44 0.076      67.34    0.100     51.71        0.813 0.80 1.00
            6    590    1898.78 0.023     101.01    0.100     51.71        1.320 0.80 1.00
            6    591    1113.61 0.029     101.01    0.100     51.71        1.039 0.80 1.00
            6    592    1231.47 0.064      67.34    0.100     51.71        0.829 0.80 1.00
            6    593    3267.67 0.012     134.68    0.100     51.71        2.010 0.80 1.00
            6    594    3018.56 0.012     134.68    0.100     51.71        1.942 0.80 1.00
            6    595    4127.18 0.015     134.68    0.100     51.71        2.175 0.80 1.00
            6    596    2180.79 0.018     134.68    0.100     51.71        1.594 0.80 1.00
            6    597    1215.57 0.028     101.01    0.100     51.71        1.077 0.80 1.00
            6    598    1942.59 0.031     101.01    0.100     51.71        1.274 0.80 1.00
            6    599    1361.73 0.045     101.01    0.100     51.71        1.035 0.80 1.00
            6    600    1109.81 0.021     101.01    0.100     51.71        1.103 0.80 1.00
            6    601    2661.52 0.041     101.01    0.100     51.71        1.427 0.80 1.00
            6    602   12986.42 0.000     134.68    0.050     71.15        6.154 0.80 1.00
            6    603    1238.24 0.021     101.01    0.150     35.00        1.338 0.80 1.00
            6    604    2032.59 0.016     134.68    0.150     35.00        1.835 0.80 1.00
            6    605    1381.05 0.013     134.68    0.150     35.00        1.719 0.80 1.00
            6    606   12940.87 0.000     134.68    0.050     69.35        6.143 0.80 1.00
            6    607    2462.94 0.071      67.34    0.100     35.00        1.177 0.80 1.00
            6    608    1757.80 0.101      67.34    0.100     35.00        0.936 0.80 1.00
            6    609    1345.18 0.069      67.34    0.100     35.00        0.855 0.80 1.00
            6    610    1083.92 0.077      67.34    0.100     35.00        0.762 0.80 1.00
            6    611    1282.84 0.061      67.34    0.100     35.00        0.851 0.80 1.00
            6    612    1381.84 0.098      67.34    0.100     35.00        0.827 0.80 1.00
            6    613    1350.57 0.062      67.34    0.100     35.00        0.869 0.80 1.00
            6    614    2001.77 0.039     101.01    0.100     35.00        1.249 0.80 1.00
            6    615    1125.91 0.064      67.34    0.100     35.00        0.797 0.80 1.00
            6    616    1675.16 0.035     101.01    0.100     35.00        1.173 0.80 1.00
            6    617    1196.45 0.028     101.01    0.100     35.00        1.071 0.80 1.00
            6    618    1800.03 0.016     134.68    0.100     35.00        1.516 0.80 1.00
            6    619    2750.14 0.023     101.01    0.100     35.00        1.561 0.80 1.00
            6    620    1681.13 0.061      67.34    0.100     35.00        0.970 0.80 1.00
            6    621    1587.33 0.059      67.34    0.100     35.00        0.946 0.80 1.00
            6    622    1187.66 0.111      67.34    0.100     35.00        0.755 0.80 1.00
            6    623    1929.06 0.063      67.34    0.100     35.00        1.039 0.80 1.00
            6    624    1336.05 0.079      67.34    0.100     35.00        0.837 0.80 1.00
            6    625    1478.61 0.039     101.01    0.100     35.00        1.095 0.80 1.00
            6    626    1051.07 0.079      67.34    0.100     35.00        0.749 0.80 1.00
            6    627    1532.20 0.059      67.34    0.100     35.00        0.930 0.80 1.00
            6    628    1060.61 0.100      67.34    0.100     35.00        0.727 0.80 1.00
            6    629    1133.12 0.025     101.01    0.100     35.00        1.074 0.80 1.00
            6    630    3881.83 0.034     101.01    0.100     35.00        1.791 0.80 1.00
            6    631    1541.74 0.065      67.34    0.100     35.00        0.921 0.80 1.00
            6    632    1165.38 0.058      67.34    0.100     35.00        0.821 0.80 1.00
            6    633    3527.75 0.029     101.01    0.100     35.00        1.727 0.80 1.00
            6    634    1535.17 0.013     134.68    0.100     35.00        1.497 0.80 1.00
            6    635    1705.63 0.022     101.01    0.100     35.00        1.273 0.80 1.00
            6    636    3120.32 0.019     134.68    0.100     35.00        1.841 0.80 1.00
            6    637    1135.49 0.016     134.68    0.100     35.00        1.317 0.80 1.00
            6    638    1957.56 0.010     134.68    0.100     35.00        1.700 0.80 1.00
            6    639    5399.46 0.019     134.68    0.100     35.00        2.440 0.80 1.00
            6    640    3578.92 0.014     134.68    0.100     35.00        2.049 0.80 1.00
            6    641     214.73 0.001     134.68    0.010     72.08        0.622 0.80 1.00
            6    642    1326.26 0.001     134.68    0.150     38.39        3.141 0.80 1.00
            6    643    1214.33 0.023     101.01    0.150     38.39        1.307 0.80 1.00
            6    644    1536.55 0.018     134.68    0.150     38.39        1.650 0.80 1.00
            6    645    1199.02 0.012     134.68    0.150     38.39        1.693 0.80 1.00
            6    646    2439.28 0.008     134.68    0.150     38.39        2.221 0.80 1.00
            6    647    2369.98 0.014     134.68    0.150     38.39        1.979 0.80 1.00
            6    648    1226.48 0.043     101.01    0.150     71.15        1.160 0.80 1.00
            6    649    1522.03 0.026     101.01    0.150     44.13        1.368 0.80 1.00
            6    650    1585.75 0.030     101.01    0.150     44.13        1.351 0.80 1.00
            6    651    1735.32 0.028     101.01    0.150     44.13        1.412 0.80 1.00
            6    652    1245.20 0.010     134.68    0.150     62.14        1.779 0.80 1.00
            6    653    1911.72 0.023     101.01    0.150     44.13        1.514 0.80 1.00
            6    654    1249.01 0.027     101.01    0.150     62.14        1.276 0.80 1.00
            6    655    1944.42 0.020     101.01    0.150     62.14        1.561 0.80 1.00
            6    656    1221.35 0.023     101.01    0.150     71.15        1.309 0.80 1.00
            6    657    1775.33 0.016     134.68    0.150     44.13        1.761 0.80 1.00
            6    658    1792.48 0.019     134.68    0.150     44.13        1.707 0.80 1.00
            6    659    2427.92 0.039     101.01    0.150     71.15        1.532 0.80 1.00
            6    660    1760.42 0.018     134.68    0.150     44.13        1.716 0.80 1.00
            6    661    3491.89 0.014     134.68    0.150     44.13        2.288 0.80 1.00
            6    662    1039.91 0.013     134.68    0.150     44.13        1.614 0.80 1.00
            6    663    1299.59 0.042     101.01    0.150     71.15        1.187 0.80 1.00
            6    664    1589.75 0.029     101.01    0.150     71.15        1.361 0.80 1.00
            6    665   60834.10 0.000     134.68    0.050     69.35       15.846 0.80 1.00
            6    666   31679.59 0.000     134.68    0.050     71.15       10.157 0.80 1.00
            6    667    3243.57 0.006     134.68    0.140     60.33        2.509 0.80 1.00
            6    668    1067.77 0.035     101.01    0.140     60.33        1.125 0.80 1.00
            6    669    1627.39 0.006     134.68    0.140     60.33        2.053 0.80 1.00
            6    670    1136.48 0.006     134.68    0.140     60.33        1.905 0.80 1.00
            6    671    1188.25 0.039     101.01    0.140     60.33        1.139 0.80 1.00
            6    672    1091.68 0.036     101.01    0.140     60.33        1.127 0.80 1.00
            6    673    1584.96 0.008     134.68    0.100     35.00        1.664 0.80 1.00
            6    674    1400.76 0.009     134.68    0.100     35.00        1.570 0.80 1.00
            6    675    1509.68 0.012     134.68    0.100     64.84        1.513 0.80 1.00
            6    676    3569.39 0.040     101.01    0.100     64.84        1.679 0.80 1.00
            6    677    1155.99 0.036     101.01    0.100     35.00        1.012 0.80 1.00
            6    678    1371.86 0.010     134.68    0.100     35.00        1.527 0.80 1.00
            6    679    1125.32 0.008     134.68    0.100     35.00        1.525 0.80 1.00
            6    680    1376.25 0.038     101.01    0.100     64.84        1.069 0.80 1.00
            6    681    2186.37 0.006     134.68    0.140     70.25        2.215 0.80 1.00
            6    682    1059.42 0.007     134.68    0.140     60.34        1.813 0.80 1.00
            6    683    3702.81 0.005     134.68    0.140     70.25        2.717 0.80 1.00
            6    684    2064.46 0.006     134.68    0.140     70.25        2.180 0.80 1.00
            6    685    1315.10 0.006     134.68    0.140     60.34        1.959 0.80 1.00
            6    686    1334.61 0.006     134.68    0.140     61.11        1.965 0.80 1.00
            6    687    1097.85 0.039     101.01    0.140     61.11        1.111 0.80 1.00
            7    688    1817.37 0.048     101.01    0.100     51.71        1.105 0.80 1.00
            7    689    8815.34 0.030     101.01    0.100     51.71        2.833 0.80 1.00
            7    690    4470.84 0.019     134.68    0.100     51.71        2.081 0.80 1.00
            7    691    2254.73 0.090      67.34    0.100     51.71        1.025 0.80 1.00
            7    692    1968.35 0.041     101.01    0.100     51.71        1.172 0.80 1.00
            7    693    2209.93 0.022     101.01    0.100     51.71        1.354 0.80 1.00
            7    694    1830.35 0.031     101.01    0.100     51.71        1.186 0.80 1.00
            7    695    8733.53 0.032     101.01    0.100     51.71        2.803 0.80 1.00
            7    696    5703.07 0.021     101.01    0.100     51.71        2.209 0.80 1.00
            7    697    2880.12 0.045     101.01    0.100     51.71        1.389 0.80 1.00
            7    698    4595.20 0.014     134.68    0.100     51.71        2.194 0.80 1.00
            7    699    2792.44 0.009     134.68    0.100     51.71        1.890 0.80 1.00
            7    700    2181.04 0.035     101.01    0.100     51.71        1.255 0.80 1.00
            7    701   24213.96 0.000     134.68    0.050     71.15        8.081 0.80 1.00
            7    702   28989.44 0.000     134.68    0.050     69.35        8.988 0.80 1.00
            7    703    6301.82 0.000     134.68    0.050     71.15        4.404 0.80 1.00
            7    704    3535.21 0.000     134.68    0.050     69.35        3.754 0.80 1.00
            7    705    2973.94 0.011     134.68    0.150     54.06        2.154 0.80 1.00
            7    706    2993.76 0.006     134.68    0.150     54.06        2.419 0.80 1.00
            7    707      17.96 0.004     134.68    0.010     72.08        0.358 0.80 1.00
            7    708    3117.80 0.014     134.68    0.150     62.14        2.099 0.80 1.00
            7    709    5627.09 0.025     101.01    0.150     71.15        2.341 0.80 1.00
            7    710    4920.21 0.029     101.01    0.150     62.14        2.139 0.80 1.00
            7    711    2279.73 0.017     134.68    0.150     62.14        1.818 0.80 1.00
            7    712    4654.61 0.029     101.01    0.150     71.15        2.077 0.80 1.00
            7    713    2405.71 0.014     134.68    0.150     71.15        1.919 0.80 1.00
            7    714    2554.11 0.018     134.68    0.150     62.14        1.869 0.80 1.00
            7    715    2704.45 0.037     101.01    0.150     62.14        1.544 0.80 1.00
            7    716    2152.77 0.013     134.68    0.150     44.13        1.881 0.80 1.00
            7    717    2185.58 0.026     101.01    0.150     44.13        1.497 0.80 1.00
            7    718    2237.20 0.008     134.68    0.140     70.25        2.040 0.80 1.00
            7    719    2685.28 0.011     134.68    0.140     76.55        2.029 0.80 1.00
            7    720    2634.95 0.034     101.01    0.140     76.55        1.515 0.80 1.00
            7    721    1793.01 0.009     134.68    0.140     52.50        1.875 0.80 1.00
            7    722    3428.21 0.033     101.01    0.140     52.50        1.719 0.80 1.00
            7    723    3777.92 0.011     134.68    0.140     52.50        2.299 0.80 1.00
            7    724    3880.85 0.037     101.01    0.140     52.50        1.803 0.80 1.00
            7    725    4502.97 0.007     134.68    0.140     52.50        2.654 0.80 1.00
            7    726    1948.54 0.007     134.68    0.140     52.50        2.021 0.80 1.00
            7    727    2622.29 0.008     134.68    0.140     52.50        2.138 0.80 1.00
            7    728    2770.36 0.038     101.01    0.140     52.50        1.524 0.80 1.00
            7    729    1848.20 0.010     134.68    0.140     52.50        1.849 0.80 1.00
            7    730    2497.30 0.008     134.68    0.140     52.50        2.107 0.80 1.00
            7    731    4092.88 0.007     134.68    0.140     52.50        2.557 0.80 1.00
            7    732    2457.02 0.009     134.68    0.060     46.23        1.518 0.80 1.00
            7    733    4206.53 0.033     101.01    0.060     46.23        1.605 0.80 1.00
            7    734    4657.20 0.011     134.68    0.060     46.23        2.010 0.80 1.00
            7    735    2360.27 0.036     101.01    0.060     46.23        1.137 0.80 1.00
            7    736    1854.06 0.007     134.68    0.140     61.11        1.996 0.80 1.00
            7    737    2179.39 0.038     101.01    0.140     61.11        1.373 0.80 1.00
            7    738    2189.79 0.008     134.68    0.140     61.11        2.027 0.80 1.00
            7    739    2360.27 0.037     101.01    0.140     61.11        1.426 0.80 1.00
            7    740    2200.18 0.009     134.68    0.140     61.11        1.982 0.80 1.00
            7    741    3333.40 0.007     134.68    0.140     61.11        2.372 0.80 1.00
            7    742    1778.40 0.008     134.68    0.140     61.11        1.919 0.80 1.00
            7    743    1808.27 0.012     134.68    0.100     64.84        1.546 0.80 1.00
            7    744    2341.43 0.036     101.01    0.100     64.84        1.292 0.80 1.00
            7    745    2181.36 0.010     134.68    0.140     69.35        1.936 0.80 1.00
            7    746    2997.65 0.038     101.01    0.140     69.35        1.581 0.80 1.00
            8    747    4194.67 0.034     101.01    0.140     61.11        2.670 0.80 1.00
            8    748    3474.31 0.012     134.68    0.140     61.11        2.847 0.80 1.00
            8    749    2180.60 0.009     134.68    0.140     61.11        2.413 0.80 1.00
            8    750    4910.52 0.039     101.01    0.140     61.11        2.923 0.80 1.00
            8    751    1670.10 0.040     101.01    0.140     61.11        1.573 0.80 1.00
            8    752    1850.74 0.009     134.68    0.140     61.11        2.268 0.80 1.00
            8    753    3649.19 0.040     101.01    0.140     76.55        2.414 0.80 1.00
            8    754    2476.11 0.009     134.68    0.140     70.25        2.540 0.80 1.00
            8    755    3211.86 0.036     101.01    0.140     76.55        2.257 0.80 1.00
            8    756    2446.92 0.012     134.68    0.140     76.55        2.417 0.80 1.00
            8    757    3842.04 0.017     134.68    0.150     62.14        2.922 0.80 1.00
            8    758    5077.05 0.042     101.01    0.150     71.15        3.002 0.80 1.00
            8    759    2113.86 0.071      67.34    0.150     71.15        1.545 0.80 1.00
            8    760    5426.79 0.029     101.01    0.150     71.15        3.224 0.80 1.00
            8    761    1778.88 0.012     134.68    0.150     44.13        2.178 0.80 1.00
            8    762    1906.57 0.030     101.01    0.150     44.13        1.775 0.80 1.00
            8    763    1914.61 0.028     101.01    0.150     44.13        1.796 0.80 1.00
            8    764    1848.83 0.020     134.68    0.150     71.15        2.028 0.80 1.00
            8    765    1874.49 0.033     101.01    0.150     62.14        1.738 0.80 1.00
            8    766    2092.36 0.039     101.01    0.150     71.15        1.795 0.80 1.00
            8    767    2431.83 0.038     101.01    0.150     71.15        1.948 0.80 1.00
            8    768    1771.81 0.027     101.01    0.150     62.14        1.742 0.80 1.00
            8    769    1758.34 0.029     101.01    0.150     44.13        1.718 0.80 1.00
            8    770    4208.78 0.039     101.01    0.060     46.23        2.357 0.80 1.00
            8    771    3631.87 0.035     101.01    0.060     46.23        2.139 0.80 1.00
            8    772    2628.52 0.012     134.68    0.060     46.23        2.008 0.80 1.00
            8    773    1646.03 0.010     134.68    0.060     46.23        1.621 0.80 1.00
            8    774    4063.26 0.000     134.68    0.050     69.35        4.633 0.80 1.00
            8    775    2771.95 0.039     101.01    0.140     74.75        2.056 0.80 1.00
            8    776    1892.77 0.012     134.68    0.140     74.75        2.177 0.80 1.00
            8    777    2416.76 0.035     101.01    0.140     74.75        1.929 0.80 1.00
            8    778    5231.69 0.012     134.68    0.140     60.33        3.548 0.80 1.00
            8    779    5973.86 0.034     101.01    0.140     60.33        3.365 0.80 1.00
            8    780    6881.91 0.039     101.01    0.140     60.33        3.679 0.80 1.00
            8    781    2208.82 0.014     134.68    0.140     60.33        2.260 0.80 1.00
            8    782    2804.67 0.010     134.68    0.140     60.33        2.638 0.80 1.00
            8    783      56.76 0.001     134.68    0.010     72.08        0.572 0.80 1.00
            8    784    9963.82 0.033     101.01    0.100     51.71        4.709 0.80 1.00
            8    785    5593.96 0.023     101.01    0.100     51.71        3.158 0.80 1.00
            8    786    3062.98 0.076      67.34    0.100     51.71        1.835 0.80 1.00
            8    787    8398.30 0.047     101.01    0.100     51.71        4.078 0.80 1.00
            8    788    1774.70 0.112      67.34    0.100     51.71        1.240 0.80 1.00
            8    789    3974.86 0.041     101.01    0.100     51.71        2.410 0.80 1.00
            8    790    1971.08 0.021     101.01    0.100     51.71        1.700 0.80 1.00
            8    791    2239.32 0.038     101.01    0.100     51.71        1.701 0.80 1.00
            8    792    1722.72 0.115      67.34    0.100     51.71        1.214 0.80 1.00
            8    793    1932.24 0.114      67.34    0.100     51.71        1.308 0.80 1.00
            8    794    2092.05 0.083      67.34    0.100     51.71        1.412 0.80 1.00
            8    795    2049.04 0.018     134.68    0.100     51.71        1.908 0.80 1.00
            8    796    1747.12 0.173      20.20    0.100     51.71        1.035 0.80 1.00
            8    797    1961.44 0.066      67.34    0.100     51.71        1.381 0.80 1.00
            8    798    4769.32 0.143      26.94    0.100     51.71        2.327 0.80 1.00
            8    799    1712.77 0.024     101.01    0.100     51.71        1.558 0.80 1.00
            8    800    2073.44 0.042     101.01    0.100     51.71        1.612 0.80 1.00
            8    801    2118.67 0.052      67.34    0.100     51.71        1.479 0.80 1.00
            8    802    1736.52 0.079      67.34    0.100     51.71        1.260 0.80 1.00
            8    803    2874.30 0.050      67.34    0.100     51.71        1.807 0.80 1.00
            8    804    2357.70 0.075      67.34    0.100     51.71        1.538 0.80 1.00
            8    805    7190.64 0.000     134.68    0.050     71.15        5.841 0.80 1.00
            8    806   18593.14 0.000     134.68    0.050     69.35        9.825 0.80 1.00
            8    807   20375.16 0.000     134.68    0.050     71.15       10.414 0.80 1.00

         HRU CN Input Summary Table:
          Sub   HRU   Area(ha)  LULC      Soil    CN1    CN2    CN3  Wilting Point (mm H2O)  Field Capacity (mm H2O)  Saturation (mm H2O)
            1      1    4570.16  FRSD  Nebish     31.9   51.7   71.6                   304.8                    366.5                521.3
            1      2    2627.43  FRSD  Mooselak   31.9   51.7   71.6                    10.0                   1025.0               1871.1
            1      3    1797.05  FRSD  Shooker    31.9   51.7   71.6                   207.6                    255.3                445.4
            1      4    1967.59  FRSD  Cutaway    31.9   51.7   71.6                   133.2                    189.2                468.7
            1      5     946.05  FRSD  Beltrami   31.9   51.7   71.6                   304.2                    344.0                520.5
            1      6    1797.41  FRSD  Suomi      31.9   51.7   71.6                   279.8                    244.3                331.0
            1      7    2590.64  FRSD  Andrusia   31.9   51.7   71.6                    45.0                    142.8                588.7
            1      8    1475.40  FRSD  Suomi      31.9   51.7   71.6                   282.4                    242.7                324.4
            1      9    1265.67  FRSD  Wildwood   31.9   51.7   71.6                   455.4                    150.4                364.3
            1     10    1413.74  FRSD  Suomi      31.9   51.7   71.6                   279.8                    244.3                331.0
            1     11   15569.62  FRSD  Warba      31.9   51.7   71.6                   214.4                    301.1                442.0
            1     12   10612.50  FRSD  Eaglevie   31.9   51.7   71.6                    43.5                    112.2                719.5
            1     13    2676.02  FRSD  Rosy       31.9   51.7   71.6                   141.0                    323.4                695.5
            1     14    1575.56  FRSD  Eaglevie   31.9   51.7   71.6                    43.5                    112.2                719.5
            1     15     878.43  FRSD  Warba      31.9   51.7   71.6                   214.4                    301.1                442.0
            1     16    5535.15  FRSD  Warba      31.9   51.7   71.6                   280.4                    377.0                587.2
            1     17    1608.78  FRSD  Glossic    31.9   51.7   71.6                   148.4                    301.1                508.0
            1     18    1053.40  FRSD  Baudette   31.9   51.7   71.6                   176.4                    326.3                548.7
            1     19     924.08  FRSD  Sago       31.9   51.7   71.6                    93.0                    352.8                677.3
            1     20    1114.06  FRSD  Effie      31.9   51.7   71.6                   252.9                    270.4                360.7
            1     21    1317.15  FRSD  Suomi      31.9   51.7   71.6                   274.2                    249.1                339.4
            1     22    1263.81  FRSD  Lengby     31.9   51.7   71.6                    93.5                    184.9                538.5
            1     23    1534.34  FRSD  Rosy       31.9   51.7   71.6                   141.0                    323.4                695.5
            1     24    1059.19  FRSD  Zimmerma   31.9   51.7   71.6                    30.9                    186.4                733.3
            1     25     873.64  FRSD  Cormant    31.9   51.7   71.6                    41.3                    167.5                751.2
            1     26    1080.16  FRSD  Warba      31.9   51.7   71.6                   280.4                    377.0                587.2
            1     27    1276.60  FRSD  Zimmerma   31.9   51.7   71.6                    30.9                    186.4                733.3
            1     28    1464.50  FRSD  Lengby     31.9   51.7   71.6                    76.8                    162.4                520.3
[...]
            6    649    1522.03        58.390         0.712   1607.000   0.175      492.500  0.052    0.000     0.000
            6    650    1585.75        58.390         0.712   1607.000   0.175      492.500  0.052    0.000     0.000
            6    651    1735.32        58.390         0.712   1607.000   0.175      492.500  0.052    0.000     0.000
            6    652    1245.20        58.390         0.712   1607.000   0.175      492.500  0.052    0.000     0.000
            6    653    1911.72        58.390         0.712   1607.000   0.175      492.500  0.052    0.000     0.000
            6    654    1249.01        58.390         0.712   1607.000   0.175      492.500  0.052    0.000     0.000
            6    655    1944.42        58.390         0.712   1607.000   0.175      492.500  0.052    0.000     0.000
            6    656    1221.35        58.390         0.712   1607.000   0.175      492.500  0.052    0.000     0.000
            6    657    1775.33        58.390         0.712   1607.000   0.175      492.500  0.052    0.000     0.000
            6    658    1792.48        58.390         0.712   1607.000   0.175      492.500  0.052    0.000     0.000
            6    659    2427.92        58.390         0.712   1607.000   0.175      492.500  0.052    0.000     0.000
            6    660    1760.42        58.390         0.712   1607.000   0.175      492.500  0.052    0.000     0.000
            6    661    3491.89        58.390         0.712   1607.000   0.175      492.500  0.052    0.000     0.000
            6    662    1039.91        58.390         0.712   1607.000   0.175      492.500  0.052    0.000     0.000
            6    663    1299.59        58.390         0.712   1607.000   0.175      492.500  0.052    0.000     0.000
            6    664    1589.75        58.390         0.712   1607.000   0.175      492.500  0.052    0.000     0.000
            6    665   60834.10        58.390         0.712   1607.000   0.175      492.500  0.052    0.000     0.000
            6    666   31679.59        58.390         0.712   1607.000   0.175      492.500  0.052    0.000     0.000
            6    667    3243.57        58.390         0.712   1607.000   0.175      492.500  0.052    0.000     0.000
            6    668    1067.77        58.390         0.712   1607.000   0.175      492.500  0.052    0.000     0.000
            6    669    1627.39        58.390         0.712   1607.000   0.175      492.500  0.052    0.000     0.000
            6    670    1136.48        58.390         0.712   1607.000   0.175      492.500  0.052    0.000     0.000
            6    671    1188.25        58.390         0.712   1607.000   0.175      492.500  0.052    0.000     0.000
            6    672    1091.68        58.390         0.712   1607.000   0.175      492.500  0.052    0.000     0.000
            6    673    1584.96        58.390         0.712   1607.000   0.175      492.500  0.052    0.000     0.000
            6    674    1400.76        58.390         0.712   1607.000   0.175      492.500  0.052    0.000     0.000
            6    675    1509.68        58.390         0.712   1607.000   0.175      492.500  0.052    0.000     0.000
            6    676    3569.39        58.390         0.712   1607.000   0.175      492.500  0.052    0.000     0.000
            6    677    1155.99        58.390         0.712   1607.000   0.175      492.500  0.052    0.000     0.000
            6    678    1371.86        58.390         0.712   1607.000   0.175      492.500  0.052    0.000     0.000
            6    679    1125.32        58.390         0.712   1607.000   0.175      492.500  0.052    0.000     0.000
            6    680    1376.25        58.390         0.712   1607.000   0.175      492.500  0.052    0.000     0.000
            6    681    2186.37        58.390         0.712   1607.000   0.175      492.500  0.052    0.000     0.000
            6    682    1059.42        58.390         0.712   1607.000   0.175      492.500  0.052    0.000     0.000
            6    683    3702.81        58.390         0.712   1607.000   0.175      492.500  0.052    0.000     0.000
            6    684    2064.46        58.390         0.712   1607.000   0.175      492.500  0.052    0.000     0.000
            6    685    1315.10        58.390         0.712   1607.000   0.175      492.500  0.052    0.000     0.000
            6    686    1334.61        58.390         0.712   1607.000   0.175      492.500  0.052    0.000     0.000
            6    687    1097.85        58.390         0.712   1607.000   0.175      492.500  0.052    0.000     0.000
            7    688    1817.37        58.390         0.712   1607.000   0.175      492.500  0.052    0.000     0.000
            7    689    8815.34        58.390         0.712   1607.000   0.175      492.500  0.052    0.000     0.000
            7    690    4470.84        58.390         0.712   1607.000   0.175      492.500  0.052    0.000     0.000
            7    691    2254.73        58.390         0.712   1607.000   0.175      492.500  0.052    0.000     0.000
            7    692    1968.35        58.390         0.712   1607.000   0.175      492.500  0.052    0.000     0.000
            7    693    2209.93        58.390         0.712   1607.000   0.175      492.500  0.052    0.000     0.000
            7    694    1830.35        58.390         0.712   1607.000   0.175      492.500  0.052    0.000     0.000
            7    695    8733.53        58.390         0.712   1607.000   0.175      492.500  0.052    0.000     0.000
            7    696    5703.07        58.390         0.712   1607.000   0.175      492.500  0.052    0.000     0.000
            7    697    2880.12        58.390         0.712   1607.000   0.175      492.500  0.052    0.000     0.000
            7    698    4595.20        58.390         0.712   1607.000   0.175      492.500  0.052    0.000     0.000
            7    699    2792.44        58.390         0.712   1607.000   0.175      492.500  0.052    0.000     0.000
            7    700    2181.04        58.390         0.712   1607.000   0.175      492.500  0.052    0.000     0.000
            7    701   24213.96        58.390         0.712   1607.000   0.175      492.500  0.052    0.000     0.000
            7    702   28989.44        58.390         0.712   1607.000   0.175      492.500  0.052    0.000     0.000
            7    703    6301.82        58.390         0.712   1607.000   0.175      492.500  0.052    0.000     0.000
            7    704    3535.21        58.390         0.712   1607.000   0.175      492.500  0.052    0.000     0.000
            7    705    2973.94        58.390         0.712   1607.000   0.175      492.500  0.052    0.000     0.000
            7    706    2993.76        58.390         0.712   1607.000   0.175      492.500  0.052    0.000     0.000
            7    707      17.96        58.390         0.712   1607.000   0.175      492.500  0.052    0.000     0.000
            7    708    3117.80        58.390         0.712   1607.000   0.175      492.500  0.052    0.000     0.000
            7    709    5627.09        58.390         0.712   1607.000   0.175      492.500  0.052    0.000     0.000
            7    710    4920.21        58.390         0.712   1607.000   0.175      492.500  0.052    0.000     0.000
            7    711    2279.73        58.390         0.712   1607.000   0.175      492.500  0.052    0.000     0.000
            7    712    4654.61        58.390         0.712   1607.000   0.175      492.500  0.052    0.000     0.000
            7    713    2405.71        58.390         0.712   1607.000   0.175      492.500  0.052    0.000     0.000
            7    714    2554.11        58.390         0.712   1607.000   0.175      492.500  0.052    0.000     0.000
            7    715    2704.45        58.390         0.712   1607.000   0.175      492.500  0.052    0.000     0.000
            7    716    2152.77        58.390         0.712   1607.000   0.175      492.500  0.052    0.000     0.000
            7    717    2185.58        58.390         0.712   1607.000   0.175      492.500  0.052    0.000     0.000
            7    718    2237.20        58.390         0.712   1607.000   0.175      492.500  0.052    0.000     0.000
            7    719    2685.28        58.390         0.712   1607.000   0.175      492.500  0.052    0.000     0.000
            7    720    2634.95        58.390         0.712   1607.000   0.175      492.500  0.052    0.000     0.000
            7    721    1793.01        58.390         0.712   1607.000   0.175      492.500  0.052    0.000     0.000
            7    722    3428.21        58.390         0.712   1607.000   0.175      492.500  0.052    0.000     0.000
            7    723    3777.92        58.390         0.712   1607.000   0.175      492.500  0.052    0.000     0.000
            7    724    3880.85        58.390         0.712   1607.000   0.175      492.500  0.052    0.000     0.000
            7    725    4502.97        58.390         0.712   1607.000   0.175      492.500  0.052    0.000     0.000
            7    726    1948.54        58.390         0.712   1607.000   0.175      492.500  0.052    0.000     0.000
            7    727    2622.29        58.390         0.712   1607.000   0.175      492.500  0.052    0.000     0.000
            7    728    2770.36        58.390         0.712   1607.000   0.175      492.500  0.052    0.000     0.000
            7    729    1848.20        58.390         0.712   1607.000   0.175      492.500  0.052    0.000     0.000
            7    730    2497.30        58.390         0.712   1607.000   0.175      492.500  0.052    0.000     0.000
            7    731    4092.88        58.390         0.712   1607.000   0.175      492.500  0.052    0.000     0.000
            7    732    2457.02        58.390         0.712   1607.000   0.175      492.500  0.052    0.000     0.000
            7    733    4206.53        58.390         0.712   1607.000   0.175      492.500  0.052    0.000     0.000
            7    734    4657.20        58.390         0.712   1607.000   0.175      492.500  0.052    0.000     0.000
            7    735    2360.27        58.390         0.712   1607.000   0.175      492.500  0.052    0.000     0.000
            7    736    1854.06        58.390         0.712   1607.000   0.175      492.500  0.052    0.000     0.000
            7    737    2179.39        58.390         0.712   1607.000   0.175      492.500  0.052    0.000     0.000
            7    738    2189.79        58.390         0.712   1607.000   0.175      492.500  0.052    0.000     0.000
            7    739    2360.27        58.390         0.712   1607.000   0.175      492.500  0.052    0.000     0.000
            7    740    2200.18        58.390         0.712   1607.000   0.175      492.500  0.052    0.000     0.000
            7    741    3333.40        58.390         0.712   1607.000   0.175      492.500  0.052    0.000     0.000
            7    742    1778.40        58.390         0.712   1607.000   0.175      492.500  0.052    0.000     0.000
            7    743    1808.27        58.390         0.712   1607.000   0.175      492.500  0.052    0.000     0.000
            7    744    2341.43        58.390         0.712   1607.000   0.175      492.500  0.052    0.000     0.000
            7    745    2181.36        58.390         0.712   1607.000   0.175      492.500  0.052    0.000     0.000
            7    746    2997.65        58.390         0.712   1607.000   0.175      492.500  0.052    0.000     0.000
            8    747    4194.67        58.390         0.712   1607.000   0.175      492.500  0.052    0.000     0.000
            8    748    3474.31        58.390         0.712   1607.000   0.175      492.500  0.052    0.000     0.000
            8    749    2180.60        58.390         0.712   1607.000   0.175      492.500  0.052    0.000     0.000
            8    750    4910.52        58.390         0.712   1607.000   0.175      492.500  0.052    0.000     0.000
            8    751    1670.10        58.390         0.712   1607.000   0.175      492.500  0.052    0.000     0.000
            8    752    1850.74        58.390         0.712   1607.000   0.175      492.500  0.052    0.000     0.000
            8    753    3649.19        58.390         0.712   1607.000   0.175      492.500  0.052    0.000     0.000
            8    754    2476.11        58.390         0.712   1607.000   0.175      492.500  0.052    0.000     0.000
            8    755    3211.86        58.390         0.712   1607.000   0.175      492.500  0.052    0.000     0.000
            8    756    2446.92        58.390         0.712   1607.000   0.175      492.500  0.052    0.000     0.000
            8    757    3842.04        58.390         0.712   1607.000   0.175      492.500  0.052    0.000     0.000
            8    758    5077.05        58.390         0.712   1607.000   0.175      492.500  0.052    0.000     0.000
            8    759    2113.86        58.390         0.712   1607.000   0.175      492.500  0.052    0.000     0.000
            8    760    5426.79        58.390         0.712   1607.000   0.175      492.500  0.052    0.000     0.000
            8    761    1778.88        58.390         0.712   1607.000   0.175      492.500  0.052    0.000     0.000
            8    762    1906.57        58.390         0.712   1607.000   0.175      492.500  0.052    0.000     0.000
            8    763    1914.61        58.390         0.712   1607.000   0.175      492.500  0.052    0.000     0.000
            8    764    1848.83        58.390         0.712   1607.000   0.175      492.500  0.052    0.000     0.000
            8    765    1874.49        58.390         0.712   1607.000   0.175      492.500  0.052    0.000     0.000
            8    766    2092.36        58.390         0.712   1607.000   0.175      492.500  0.052    0.000     0.000
            8    767    2431.83        58.390         0.712   1607.000   0.175      492.500  0.052    0.000     0.000
            8    768    1771.81        58.390         0.712   1607.000   0.175      492.500  0.052    0.000     0.000
            8    769    1758.34        58.390         0.712   1607.000   0.175      492.500  0.052    0.000     0.000
            8    770    4208.78        58.390         0.712   1607.000   0.175      492.500  0.052    0.000     0.000
            8    771    3631.87        58.390         0.712   1607.000   0.175      492.500  0.052    0.000     0.000
            8    772    2628.52        58.390         0.712   1607.000   0.175      492.500  0.052    0.000     0.000
            8    773    1646.03        58.390         0.712   1607.000   0.175      492.500  0.052    0.000     0.000
            8    774    4063.26        58.390         0.712   1607.000   0.175      492.500  0.052    0.000     0.000
            8    775    2771.95        58.390         0.712   1607.000   0.175      492.500  0.052    0.000     0.000
            8    776    1892.77        58.390         0.712   1607.000   0.175      492.500  0.052    0.000     0.000
            8    777    2416.76        58.390         0.712   1607.000   0.175      492.500  0.052    0.000     0.000
            8    778    5231.69        58.390         0.712   1607.000   0.175      492.500  0.052    0.000     0.000
            8    779    5973.86        58.390         0.712   1607.000   0.175      492.500  0.052    0.000     0.000
            8    780    6881.91        58.390         0.712   1607.000   0.175      492.500  0.052    0.000     0.000
            8    781    2208.82        58.390         0.712   1607.000   0.175      492.500  0.052    0.000     0.000
            8    782    2804.67        58.390         0.712   1607.000   0.175      492.500  0.052    0.000     0.000
            8    783      56.76        58.390         0.712   1607.000   0.175      492.500  0.052    0.000     0.000
            8    784    9963.82        58.390         0.712   1607.000   0.175      492.500  0.052    0.000     0.000
            8    785    5593.96        58.390         0.712   1607.000   0.175      492.500  0.052    0.000     0.000
            8    786    3062.98        58.390         0.712   1607.000   0.175      492.500  0.052    0.000     0.000
            8    787    8398.30        58.390         0.712   1607.000   0.175      492.500  0.052    0.000     0.000
            8    788    1774.70        58.390         0.712   1607.000   0.175      492.500  0.052    0.000     0.000
            8    789    3974.86        58.390         0.712   1607.000   0.175      492.500  0.052    0.000     0.000
            8    790    1971.08        58.390         0.712   1607.000   0.175      492.500  0.052    0.000     0.000
            8    791    2239.32        58.390         0.712   1607.000   0.175      492.500  0.052    0.000     0.000
            8    792    1722.72        58.390         0.712   1607.000   0.175      492.500  0.052    0.000     0.000
            8    793    1932.24        58.390         0.712   1607.000   0.175      492.500  0.052    0.000     0.000
            8    794    2092.05        58.390         0.712   1607.000   0.175      492.500  0.052    0.000     0.000
            8    795    2049.04        58.390         0.712   1607.000   0.175      492.500  0.052    0.000     0.000
            8    796    1747.12        58.390         0.712   1607.000   0.175      492.500  0.052    0.000     0.000
            8    797    1961.44        58.390         0.712   1607.000   0.175      492.500  0.052    0.000     0.000
            8    798    4769.32        58.390         0.712   1607.000   0.175      492.500  0.052    0.000     0.000
            8    799    1712.77        58.390         0.712   1607.000   0.175      492.500  0.052    0.000     0.000
            8    800    2073.44        58.390         0.712   1607.000   0.175      492.500  0.052    0.000     0.000
            8    801    2118.67        58.390         0.712   1607.000   0.175      492.500  0.052    0.000     0.000
            8    802    1736.52        58.390         0.712   1607.000   0.175      492.500  0.052    0.000     0.000
            8    803    2874.30        58.390         0.712   1607.000   0.175      492.500  0.052    0.000     0.000
            8    804    2357.70        58.390         0.712   1607.000   0.175      492.500  0.052    0.000     0.000
            8    805    7190.64        58.390         0.712   1607.000   0.175      492.500  0.052    0.000     0.000
            8    806   18593.14        58.390         0.712   1607.000   0.175      492.500  0.052    0.000     0.000
            8    807   20375.16        58.390         0.712   1607.000   0.175      492.500  0.052    0.000     0.000

         Tributary/Main Channel Characteristics
              |--------------Tributary--------------------|---------------------Main---------------------------|
          Sub  Length(km) Slope Width(m) Cond(mm/hr)     N Length(km) Slope Width(m) Depth(m) Cond(mm/hr)     N
            1      412.92 0.000   213.11      0.0000 0.014     412.92 0.000   293.09     4.84      0.0000 0.014
            2      164.21 0.000   172.17      0.0000 0.014     164.21 0.000   172.17     3.40      0.0000 0.014
            3      349.17 0.000   221.53      0.0000 0.014     349.17 0.000   392.52     5.88      0.0000 0.014
            4      333.41 0.000   198.00      0.0000 0.014     333.41 0.000   625.60     8.02      0.0000 0.014
            5      160.51 0.000   124.47      0.0000 0.014     160.51 0.000   124.47     2.73      0.0000 0.014
            6      447.22 0.000   217.38      0.0000 0.014     447.22 0.000   318.95     5.12      0.0000 0.014
            7      227.37 0.000   134.69      0.0000 0.014     227.37 0.000   134.69     2.88      0.0000 0.014
            8      268.77 0.000   133.59      0.0000 0.014     268.77 0.000   133.59     2.87      0.0000 0.014
