1
    SWAT Sep 7    VER 2018/Rev 670                                                                       0/ 0/   0      0: 0: 0

    General Input/Output section (file.cio):                                        
    11/30/2022 2:01:14 PM HAWQS Interface                                           
                                                                                    
         Number of years in run:    5
         Area of watershed:    28475.419 km2
1
    SWAT Sep 7    VER 2018/Rev 670                                                  

    General Input/Output section (file.cio):                                        
    11/30/2022 2:01:14 PM HAWQS Interface                                           
                                                                                    
Annual Summary for Watershed in year    1 of simulation

UNIT                                    PERCO    TILE                           WATER     SED     NO3     NO3     NO3     NO3        N       P       P
TIME     PREC    SURQ    LATQ     GWQ    LATE       Q     SW       ET     PET   YIELD   YIELD    SURQ    LATQ    PERC    CROP  ORGANIC SOLUBLE ORGANIC TILENO3
         (mm)    (mm)    (mm)    (mm)    (mm)    (mm)    (mm)    (mm)    (mm)    (mm)   (t/ha)  ------------------(kg nutrient/ha)-------------------- (kg/ha)
1
    SWAT Sep 7    VER 2018/Rev 670                                                  

    General Input/Output section (file.cio):                                        
    11/30/2022 2:01:14 PM HAWQS Interface                                           
                                                                                    
Annual Summary for Watershed in year    2 of simulation

UNIT                                    PERCO    TILE                           WATER     SED     NO3     NO3     NO3     NO3        N       P       P
TIME     PREC    SURQ    LATQ     GWQ    LATE       Q     SW       ET     PET   YIELD   YIELD    SURQ    LATQ    PERC    CROP  ORGANIC SOLUBLE ORGANIC TILENO3
         (mm)    (mm)    (mm)    (mm)    (mm)    (mm)    (mm)    (mm)    (mm)    (mm)   (t/ha)  ------------------(kg nutrient/ha)-------------------- (kg/ha)
1
    SWAT Sep 7    VER 2018/Rev 670                                                  

    General Input/Output section (file.cio):                                        
    11/30/2022 2:01:14 PM HAWQS Interface                                           
                                                                                    
Annual Summary for Watershed in year    3 of simulation

UNIT                                    PERCO    TILE                           WATER     SED     NO3     NO3     NO3     NO3        N       P       P
TIME     PREC    SURQ    LATQ     GWQ    LATE       Q     SW       ET     PET   YIELD   YIELD    SURQ    LATQ    PERC    CROP  ORGANIC SOLUBLE ORGANIC TILENO3
         (mm)    (mm)    (mm)    (mm)    (mm)    (mm)    (mm)    (mm)    (mm)    (mm)   (t/ha)  ------------------(kg nutrient/ha)-------------------- (kg/ha)
    1    0.03    0.00    0.00    0.00    0.00    0.00  142.11    0.20    0.26    0.00    0.00    0.00    0.00    0.00    0.00     0.00    0.00    0.00    0.00
    2    0.00    0.00    0.00    0.00    0.00    0.00  142.04    0.16    0.21    0.00    0.00    0.00    0.00    0.00    0.00     0.00    0.00    0.00    0.00
    3    0.04    0.00    0.00    0.00    0.00    0.00  141.98    0.10    0.14    0.00    0.00    0.00    0.00    0.00    0.00     0.00    0.00    0.00    0.00
    4    0.68    0.00    0.00    0.00    0.00    0.00  141.91    0.21    0.28    0.00    0.00    0.00    0.00    0.00    0.00     0.00    0.00    0.00    0.00
    5    0.00    0.00    0.00    0.00    0.00    0.00  141.82    0.27    0.36    0.00    0.00    0.00    0.00    0.00    0.00     0.00    0.00    0.00    0.00
    6    4.98    0.00    0.00    0.00    0.00    0.00  141.73    0.25    0.33    0.00    0.00    0.00    0.00    0.00    0.00     0.00    0.00    0.00    0.00
    7    6.18    0.00    0.00    0.00    0.00    0.00  141.65    0.24    0.32    0.00    0.00    0.00    0.00    0.00    0.00     0.00    0.00    0.00    0.00
    8    0.09    0.00    0.00    0.00    0.00    0.00  141.59    0.16    0.21    0.00    0.00    0.00    0.00    0.00    0.00     0.00    0.00    0.00    0.00
    9    0.08    0.00    0.00    0.00    0.00    0.00  141.50    0.27    0.35    0.00    0.00    0.00    0.00    0.00    0.00     0.00    0.00    0.00    0.00
   10    6.98    0.00    0.00    0.00    0.01    0.00  141.41    0.25    0.33    0.00    0.00    0.00    0.00    0.00    0.00     0.00    0.00    0.00    0.00
   11    0.28    0.00    0.00    0.00    0.00    0.00  141.32    0.24    0.32    0.00    0.00    0.00    0.00    0.00    0.00     0.00    0.00    0.00    0.00
   12    0.03    0.00    0.00    0.00    0.00    0.00  141.30    0.05    0.07    0.00    0.00    0.00    0.00    0.00    0.00     0.00    0.00    0.00    0.00
   13    0.06    0.00    0.00    0.00    0.00    0.00  141.23    0.18    0.24    0.00    0.00    0.00    0.00    0.00    0.00     0.00    0.00    0.00    0.00
   14    0.85    0.00    0.00    0.00    0.00    0.00  141.16    0.20    0.27    0.00    0.00    0.00    0.00    0.00    0.00     0.00    0.00    0.00    0.00
   15    0.00    0.00    0.00    0.00    0.00    0.00  141.12    0.11    0.14    0.00    0.00    0.00    0.00    0.00    0.00     0.00    0.00    0.00    0.00
   16    0.00    0.00    0.00    0.00    0.00    0.00  141.09    0.06    0.08    0.00    0.00    0.00    0.00    0.00    0.00     0.00    0.00    0.00    0.00
   17    0.07    0.00    0.00    0.00    0.00    0.00  141.05    0.07    0.10    0.00    0.00    0.00    0.00    0.00    0.00     0.00    0.00    0.00    0.00
   18    0.00    0.00    0.00    0.00    0.00    0.00  141.04    0.00    0.00    0.00    0.00    0.00    0.00    0.00    0.00     0.00    0.00    0.00    0.00
   19    0.00    0.00    0.00    0.00    0.00    0.00  141.04    0.00    0.01    0.00    0.00    0.00    0.00    0.00    0.00     0.00    0.00    0.00    0.00
   20    0.00    0.00    0.00    0.00    0.00    0.00  140.96    0.15    0.21    0.00    0.00    0.00    0.00    0.00    0.00     0.00    0.00    0.00    0.00
   21    0.00    0.00    0.00    0.00    0.00    0.00  140.84    0.19    0.28    0.00    0.00    0.00    0.00    0.00    0.00     0.00    0.00    0.00    0.00
   22    0.00    0.00    0.00    0.00    0.00    0.00  140.64    0.25    0.38    0.00    0.00    0.00    0.00    0.00    0.00     0.00    0.00    0.00    0.00
   23    0.00    0.00    0.00    0.00    0.00    0.00  140.38    0.26    0.42    0.00    0.00    0.00    0.00    0.00    0.00     0.00    0.00    0.00    0.00
   24    0.00    0.00    0.00    0.00    0.00    0.00  140.14    0.23    0.37    0.00    0.00    0.00    0.00    0.00    0.00     0.00    0.00    0.00    0.00
   25    0.01    0.00    0.00    0.00    0.00    0.00  140.08    0.07    0.11    0.00    0.00    0.00    0.00    0.00    0.00     0.00    0.00    0.00    0.00
   26    0.00    0.00    0.00    0.00    0.00    0.00  140.07    0.00    0.00    0.00    0.00    0.00    0.00    0.00    0.00     0.00    0.00    0.00    0.00
   27    0.00    0.00    0.00    0.00    0.00    0.00  140.07    0.00    0.00    0.00    0.00    0.00    0.00    0.00    0.00     0.00    0.00    0.00    0.00
   28    0.03    0.00    0.00    0.00    0.00    0.00  139.89    0.19    0.30    0.00    0.00    0.00    0.00    0.00    0.00     0.00    0.00    0.00    0.00
   29    2.08    0.00    0.00    0.00    0.00    0.00  139.80    0.31    0.42    0.00    0.00    0.00    0.00    0.00    0.00     0.00    0.00    0.00    0.00
   30    1.67    0.00    0.00    0.00    0.00    0.00  139.72    0.25    0.33    0.00    0.00    0.00    0.00    0.00    0.00     0.00    0.00    0.00    0.00
   31    0.00    0.00    0.00    0.00    0.00    0.00  139.69    0.08    0.11    0.00    0.00    0.00    0.00    0.00    0.00     0.00    0.00    0.00    0.00
    1   24.16    0.00    0.05    0.00    0.07    0.00  139.69    4.99    6.95    0.08    0.00    0.00    0.00    0.00    0.00     0.00    0.00    0.00    0.00
   32    0.00    0.00    0.00    0.00    0.00    0.00  139.66    0.10    0.13    0.00    0.00    0.00    0.00    0.00    0.00     0.00    0.00    0.00    0.00
   33    0.00    0.00    0.00    0.00    0.00    0.00  139.61    0.18    0.24    0.00    0.00    0.00    0.00    0.00    0.00     0.00    0.00    0.00    0.00
   34    0.00    0.00    0.00    0.00    0.00    0.00  139.57    0.10    0.13    0.00    0.00    0.00    0.00    0.00    0.00     0.00    0.00    0.00    0.00
   35    0.00    0.00    0.00    0.00    0.00    0.00  139.57    0.00    0.00    0.00    0.00    0.00    0.00    0.00    0.00     0.00    0.00    0.00    0.00
   36    0.00    0.00    0.00    0.00    0.00    0.00  139.56    0.00    0.00    0.00    0.00    0.00    0.00    0.00    0.00     0.00    0.00    0.00    0.00
   37    0.00    0.00    0.00    0.00    0.00    0.00  139.56    0.00    0.00    0.00    0.00    0.00    0.00    0.00    0.00     0.00    0.00    0.00    0.00
   38    0.00    0.00    0.00    0.00    0.00    0.00  139.56    0.00    0.00    0.00    0.00    0.00    0.00    0.00    0.00     0.00    0.00    0.00    0.00
   39    0.00    0.00    0.00    0.00    0.00    0.00  139.50    0.12    0.18    0.00    0.00    0.00    0.00    0.00    0.00     0.00    0.00    0.00    0.00
   40    0.02    0.00    0.00    0.00    0.00    0.00  139.35    0.20    0.31    0.00    0.00    0.00    0.00    0.00    0.00     0.00    0.00    0.00    0.00
   41    0.88    0.00    0.00    0.00    0.00    0.00  139.25    0.28    0.38    0.00    0.00    0.00    0.00    0.00    0.00     0.00    0.00    0.00    0.00
   42    0.38    0.00    0.00    0.00    0.00    0.00  139.14    0.29    0.40    0.00    0.00    0.00    0.00    0.00    0.00     0.00    0.00    0.00    0.00
   43    0.04    0.00    0.00    0.00    0.00    0.00  138.95    0.35    0.51    0.00    0.00    0.00    0.00    0.00    0.00     0.00    0.00    0.00    0.00
   44    0.00    0.00    0.00    0.00    0.00    0.00  138.60    0.39    0.62    0.00    0.00    0.00    0.00    0.00    0.00     0.00    0.00    0.00    0.00
   45    0.00    0.00    0.00    0.00    0.00    0.00  138.89    0.46    0.74    0.00    0.00    0.00    0.00    0.00    0.00     0.00    0.00    0.00    0.00
   46    0.00    0.02    0.00    0.00    0.00    0.00  139.03    0.37    0.61    0.00    0.00    0.00    0.00    0.00    0.00     0.00    0.00    0.00    0.00
   47    0.00    0.00    0.00    0.00    0.01    0.00  138.93    0.31    0.52    0.00    0.00    0.00    0.00    0.00    0.00     0.00    0.00    0.00    0.00
   48    0.00    0.00    0.00    0.00    0.01    0.00  138.49    0.42    0.71    0.00    0.00    0.00    0.00    0.00    0.00     0.00    0.00    0.00    0.00
   49    0.77    0.00    0.00    0.00    0.01    0.00  138.25    0.41    0.63    0.00    0.00    0.00    0.00    0.00    0.00     0.00    0.00    0.00    0.00
   50    0.04    0.00    0.00    0.00    0.01    0.00  138.06    0.40    0.62    0.00    0.00    0.00    0.00    0.00    0.00     0.00    0.00    0.00    0.00
   51    1.79    0.00    0.00    0.00    0.01    0.00  138.28    0.48    0.69    0.00    0.00    0.00    0.00    0.00    0.00     0.00    0.00    0.00    0.00
   52    0.03    0.00    0.00    0.00    0.01    0.00  138.05    0.38    0.57    0.00    0.00    0.00    0.00    0.00    0.00     0.00    0.00    0.00    0.00
   53    0.00    0.00    0.00    0.00    0.01    0.00  137.72    0.46    0.77    0.00    0.00    0.00    0.00    0.00    0.00     0.00    0.00    0.00    0.00
   54    0.00    0.21    0.00    0.00    0.01    0.00  138.42    0.57    0.96    0.02    0.00    0.00    0.00    0.00    0.00     0.00    0.00    0.00    0.00
   55    0.02    0.00    0.00    0.00    0.01    0.00  137.94    0.46    0.79    0.01    0.00    0.00    0.00    0.00    0.00     0.00    0.00    0.00    0.00
   56    0.00    0.00    0.00    0.00    0.01    0.00  137.59    0.33    0.57    0.01    0.00    0.00    0.00    0.00    0.00     0.00    0.00    0.00    0.00
   57    0.00    0.00    0.00    0.00    0.01    0.00  137.16    0.42    0.72    0.01    0.00    0.00    0.00    0.00    0.00     0.00    0.00    0.00    0.00
   58    0.29    0.00    0.00    0.00    0.01    0.00  137.02    0.44    0.72    0.01    0.00    0.00    0.00    0.00    0.00     0.00    0.00    0.00    0.00
   59    0.21    0.26    0.00    0.00    0.01    0.00  139.46    0.57    0.85    0.03    0.00    0.00    0.00    0.00    0.01     0.00    0.00    0.00    0.00
    2    4.48    0.51    0.04    0.00    0.17    0.00  139.46    8.48   13.37    0.11    0.00    0.00    0.00    0.00    0.01     0.00    0.00    0.00    0.00
   60    1.02    0.04    0.00    0.00    0.01    0.00  139.93    0.50    0.69    0.02    0.00    0.00    0.00    0.00    0.00     0.00    0.00    0.00    0.00
   61    0.00    0.02    0.00    0.00    0.02    0.00  140.03    0.45    0.68    0.02    0.00    0.00    0.00    0.00    0.00     0.00    0.00    0.00    0.00
   62    0.04    0.84    0.00    0.00    0.03    0.00  144.57    0.57    0.90    0.07    0.00    0.00    0.00    0.00    0.01     0.00    0.00    0.00    0.00
   63    0.10    2.59    0.00    0.00    0.03    0.00  151.06    0.71    1.06    0.24    0.00    0.00    0.00    0.00    0.01     0.00    0.00    0.00    0.00
   64    2.88    2.08    0.00    0.00    0.03    0.00  156.25    0.69    0.85    0.27    0.00    0.00    0.00    0.00    0.00     0.00    0.00    0.00    0.00
   65    5.50    3.19    0.00    0.00    0.03    0.00  161.90    0.77    0.86    0.36    0.00    0.00    0.00    0.00    0.01     0.00    0.00    0.00    0.00
   66   13.49    5.27    0.01    0.00    0.03    0.02  170.66    0.82    0.89    0.68    0.00    0.00    0.00    0.00    0.01     0.01    0.00    0.00    0.00
   67    4.53    0.13    0.01    0.00    0.03    0.02  170.96    0.81    1.02    0.40    0.00    0.00    0.00    0.00    0.00     0.00    0.00    0.00    0.00
   68    1.31    0.00    0.01    0.00    0.02    0.01  170.84    0.26    0.34    0.28    0.00    0.00    0.00    0.00    0.00     0.00    0.00    0.00    0.00
   69    0.00    0.00    0.01    0.00    0.02    0.01  170.60    0.43    0.59    0.21    0.00    0.00    0.00    0.00    0.00     0.00    0.00    0.00    0.00
   70    0.00    0.00    0.01    0.00    0.02    0.01  170.07    0.58    0.87    0.17    0.00    0.00    0.00    0.00    0.00     0.00    0.00    0.00    0.00
   71    0.00    0.00    0.01    0.00    0.02    0.01  169.32    0.72    1.13    0.14    0.00    0.00    0.00    0.00    0.00     0.00    0.00    0.00    0.00
   72    0.00    0.98    0.01    0.00    0.02    0.01  171.55    1.23    1.44    0.17    0.00    0.00    0.00    0.00    0.02     0.00    0.00    0.00    0.00
   73    0.10    0.00    0.01    0.00    0.02    0.00  170.58    0.97    1.14    0.14    0.00    0.00    0.00    0.00    0.00     0.00    0.00    0.00    0.00
   74    0.00    0.00    0.01    0.00    0.02    0.00  169.66    0.89    1.06    0.11    0.00    0.00    0.00    0.00    0.00     0.00    0.00    0.00    0.00
   75    0.30    0.00    0.01    0.00    0.02    0.00  169.10    0.65    0.78    0.10    0.00    0.00    0.00    0.00    0.00     0.00    0.00    0.00    0.00
   76    0.85    0.00    0.01    0.00    0.03    0.00  168.70    0.69    0.89    0.08    0.00    0.00    0.00    0.00    0.00     0.00    0.00    0.00    0.00
   77    2.51    0.00    0.01    0.00    0.03    0.00  168.47    0.61    0.80    0.07    0.00    0.00    0.00    0.00    0.00     0.00    0.00    0.00    0.00
   78    0.00    0.00    0.00    0.00    0.03    0.00  167.96    0.64    0.95    0.07    0.00    0.00    0.00    0.00    0.00     0.00    0.00    0.00    0.00
   79    0.00    0.00    0.00    0.00    0.02    0.00  167.28    0.65    1.02    0.06    0.00    0.00    0.00    0.00    0.00     0.00    0.00    0.00    0.00
   80    0.00    0.00    0.00    0.00    0.02    0.00  166.70    0.55    0.87    0.05    0.00    0.00    0.00    0.00    0.00     0.00    0.00    0.00    0.00
   81    0.00    0.00    0.00    0.00    0.02    0.00  166.20    0.47    0.74    0.05    0.00    0.00    0.00    0.00    0.00     0.00    0.00    0.00    0.00
   82    0.00    0.00    0.00    0.00    0.01    0.00  165.66    0.52    0.83    0.04    0.00    0.00    0.00    0.00    0.00     0.00    0.00    0.00    0.00
   83    0.00    0.00    0.00    0.00    0.01    0.00  164.96    0.68    1.09    0.04    0.00    0.00    0.00    0.00    0.00     0.00    0.00    0.00    0.00
   84    0.02    0.00    0.00    0.00    0.01    0.00  164.15    0.79    1.27    0.04    0.00    0.00    0.00    0.00    0.00     0.00    0.00    0.00    0.00
   85    0.04    0.03    0.00    0.00    0.02    0.00  164.51    0.90    1.30    0.04    0.00    0.00    0.00    0.00    0.00     0.00    0.00    0.00    0.00
   86    0.53    0.36    0.00    0.00    0.02    0.00  164.83    1.19    1.38    0.06    0.00    0.00    0.00    0.00    0.00     0.00    0.00    0.00    0.00
   87    0.09    0.00    0.00    0.00    0.02    0.00  163.62    1.26    1.50    0.04    0.00    0.00    0.00    0.00    0.00     0.00    0.00    0.00    0.00
   88    0.18    0.00    0.00    0.00    0.03    0.00  162.39    1.39    1.67    0.04    0.00    0.00    0.00    0.00    0.00     0.00    0.00    0.00    0.00
   89    3.02    0.26    0.00    0.00    0.03    0.00  163.75    1.08    1.17    0.04    0.00    0.00    0.00    0.00    0.00     0.00    0.00    0.00    0.00
   90    6.24    1.30    0.00    0.00    0.03    0.00  167.79    1.12    1.17    0.14    0.00    0.00    0.00    0.00    0.01     0.00    0.00    0.00    0.00
    3   42.73   17.09    0.15    0.00    0.63    0.10  167.79   23.59   30.94    4.25    0.00    0.00    0.00    0.01    0.08     0.04    0.00    0.01    0.00
   91    1.51    0.09    0.00    0.00    0.03    0.00  168.16    0.96    1.03    0.09    0.00    0.00    0.00    0.00    0.00     0.00    0.00    0.00    0.00
   92    1.06    0.03    0.00    0.00    0.03    0.00  168.05    1.13    1.23    0.07    0.00    0.00    0.00    0.00    0.00     0.00    0.00    0.00    0.00
   93    0.02    0.00    0.02    0.00    0.03    0.01  166.59    1.30    1.52    0.08    0.00    0.00    0.00    0.00    0.02     0.00    0.00    0.00    0.00
   94    0.03    0.00    0.02    0.00    0.03    0.03  165.16    1.22    1.48    0.09    0.00    0.00    0.00    0.00    0.00     0.00    0.00    0.00    0.00
   95    0.00    0.00    0.03    0.00    0.04    0.07  163.32    1.42    1.90    0.13    0.00    0.00    0.00    0.00    0.00     0.00    0.00    0.00    0.00
   96    1.23    0.00    0.04    0.00    0.04    0.09  162.49    1.63    1.93    0.17    0.00    0.00    0.00    0.00    0.00     0.00    0.00    0.00    0.00
   97    2.62    0.00    0.04    0.00    0.04    0.10  162.79    1.02    1.32    0.17    0.00    0.00    0.00    0.00    0.00     0.00    0.00    0.00    0.00
   98    0.02    0.09    0.03    0.00    0.04    0.10  161.86    1.61    2.01    0.16    0.00    0.00    0.00    0.00    0.00     0.00    0.00    0.00    0.00
   99    0.00    0.00    0.04    0.00    0.04    0.09  159.95    1.64    2.31    0.15    0.00    0.00    0.00    0.00    0.01     0.00    0.00    0.00    0.00
  100    0.29    0.00    0.04    0.00    0.04    0.08  158.82    1.18    1.70    0.14    0.00    0.00    0.00    0.00    0.01     0.00    0.00    0.00    0.00
  101    0.00    0.00    0.04    0.00    0.04    0.07  157.08    1.55    2.50    0.12    0.00    0.00    0.00    0.00    0.01     0.00    0.00    0.00    0.00
  102    0.00    0.00    0.03    0.00    0.04    0.08  155.28    1.48    2.58    0.13    0.00    0.00    0.00    0.00    0.02     0.00    0.00    0.00    0.00
  103    5.73    0.03    0.04    0.00    0.04    0.10  159.27    1.39    1.48    0.15    0.00    0.00    0.00    0.00    0.00     0.00    0.00    0.00    0.00
  104    1.26    0.00    0.03    0.00    0.04    0.08  158.89    0.93    1.26    0.12    0.00    0.00    0.00    0.00    0.00     0.00    0.00    0.00    0.00
  105    0.91    0.00    0.03    0.00    0.04    0.06  158.16    0.79    1.26    0.10    0.00    0.00    0.00    0.00    0.00     0.00    0.00    0.00    0.00
  106    0.03    0.00    0.03    0.00    0.04    0.05  157.25    1.22    1.82    0.09    0.00    0.00    0.00    0.00    0.00     0.00    0.00    0.00    0.00
  107    0.00    0.00    0.02    0.00    0.04    0.04  156.10    1.03    1.70    0.07    0.00    0.00    0.00    0.00    0.00     0.00    0.00    0.00    0.00
  108    0.03    0.00    0.02    0.00    0.04    0.03  155.02    1.15    1.75    0.06    0.00    0.00    0.00    0.00    0.00     0.00    0.00    0.00    0.00
  109    0.00    0.00    0.02    0.00    0.04    0.02  153.72    1.19    2.09    0.05    0.00    0.00    0.00    0.00    0.00     0.00    0.00    0.00    0.00
  110    0.00    0.18    0.02    0.00    0.04    0.02  152.66    1.53    2.54    0.05    0.00    0.00    0.00    0.00    0.02     0.00    0.00    0.00    0.00
  111    0.00    0.00    0.02    0.00    0.03    0.01  150.84    1.71    3.02    0.04    0.00    0.00    0.00    0.00    0.01     0.00    0.00    0.00    0.00
  112    0.00    0.00    0.02    0.00    0.03    0.01  149.03    1.70    3.37    0.04    0.00    0.00    0.00    0.00    0.01     0.00    0.00    0.00    0.00
  113    0.00    0.00    0.02    0.00    0.03    0.02  147.29    1.60    3.45    0.05    0.00    0.00    0.00    0.00    0.01     0.00    0.00    0.00    0.00
  114    0.00    0.00    0.02    0.00    0.03    0.02  145.63    1.55    3.52    0.05    0.00    0.00    0.00    0.00    0.01     0.00    0.00    0.00    0.00
  115    0.01    0.00    0.02    0.00    0.03    0.02  143.77    1.77    4.20    0.04    0.00    0.00    0.00    0.00    0.12     0.00    0.00    0.00    0.00
  116    0.20    0.00    0.02    0.00    0.03    0.01  142.27    1.61    3.77    0.04    0.00    0.00    0.00    0.00    0.16     0.00    0.00    0.00    0.00
  117    1.06    0.00    0.02    0.00    0.03    0.01  141.28    1.97    3.79    0.03    0.00    0.00    0.00    0.00    0.00     0.00    0.00    0.00    0.00
  118    0.65    0.00    0.01    0.00    0.03    0.01  140.32    1.53    2.92    0.03    0.00    0.00    0.00    0.00    0.00     0.00    0.00    0.00    0.00
  119    0.72    0.00    0.01    0.00    0.03    0.01  139.64    1.32    2.50    0.03    0.00    0.00    0.00    0.00    0.00     0.00    0.00    0.00    0.00
  120    0.00    0.00    0.01    0.00    0.03    0.01  138.45    1.12    2.73    0.02    0.00    0.00    0.00    0.00    0.01     0.00    0.00    0.00    0.00
    4   17.40    0.42    0.73    0.00    1.03    1.23  138.45   41.30   68.67    2.58    0.00    0.00    0.01    0.03    0.46     0.00    0.00    0.00    0.03
  121    0.00    0.00    0.01    0.00    0.03    0.00  137.09    1.28    3.29    0.02    0.00    0.00    0.00    0.00    0.01     0.00    0.00    0.00    0.00
  122    0.00    0.00    0.01    0.00    0.03    0.00  135.78    1.25    3.33    0.02    0.00    0.00    0.00    0.00    0.01     0.00    0.00    0.00    0.00
  123    0.00    0.00    0.01    0.00    0.03    0.00  134.28    1.43    3.96    0.02    0.00    0.00    0.00    0.00    0.01     0.00    0.00    0.00    0.00
  124    0.00    0.00    0.01    0.00    0.03    0.00  132.73    1.48    4.24    0.02    0.00    0.00    0.00    0.00    0.01     0.00    0.00    0.00    0.00
  125    0.05    0.00    0.01    0.00    0.03    0.00  131.59    1.13    3.21    0.02    0.00    0.00    0.00    0.00    0.01     0.00    0.00    0.00    0.00
  126    0.00    0.00    0.01    0.00    0.03    0.00  130.18    1.35    4.04    0.02    0.00    0.00    0.00    0.00    0.01     0.00    0.00    0.00    0.00
  127    0.08    0.00    0.01    0.00    0.03    0.00  128.94    1.26    3.71    0.02    0.00    0.00    0.00    0.00    0.01     0.00    0.00    0.00    0.00
  128    0.00    0.00    0.01    0.00    0.03    0.00  127.74    1.14    3.56    0.01    0.00    0.00    0.00    0.00    0.01     0.00    0.00    0.00    0.00
  129    0.13    0.00    0.01    0.00    0.02    0.00  126.54    1.27    3.78    0.01    0.00    0.00    0.00    0.00    0.00     0.00    0.00    0.00    0.00
  130    1.98    0.00    0.01    0.00    0.02    0.00  126.35    2.11    4.00    0.01    0.00    0.00    0.00    0.00    0.07     0.00    0.00    0.00    0.00
  131    0.72    0.00    0.01    0.00    0.02    0.00  124.94    2.06    4.54    0.01    0.00    0.00    0.00    0.00    0.07     0.00    0.00    0.00    0.00
  132    1.72    0.00    0.01    0.00    0.02    0.00  124.50    2.10    4.22    0.01    0.00    0.00    0.00    0.00    0.16     0.00    0.00    0.00    0.00
  133   15.17    0.88    0.02    0.00    0.03    0.00  135.23    3.34    3.88    0.06    0.00    0.00    0.00    0.00    0.01     0.00    0.00    0.00    0.00
  134    0.00    0.00    0.02    0.00    0.03    0.00  133.33    1.85    3.32    0.05    0.00    0.00    0.00    0.00    0.03     0.00    0.00    0.00    0.00
  135    1.07    0.00    0.01    0.00    0.03    0.00  132.57    1.77    2.77    0.04    0.00    0.00    0.00    0.00    0.02     0.00    0.00    0.00    0.00
  136    0.31    0.00    0.01    0.00    0.03    0.00  131.36    1.45    2.63    0.03    0.00    0.00    0.00    0.00    0.00     0.00    0.00    0.00    0.00
  137    0.00    0.00    0.01    0.00    0.03    0.00  129.73    1.58    3.44    0.03    0.00    0.00    0.00    0.00    0.01     0.00    0.00    0.00    0.00
  138    0.00    0.00    0.01    0.00    0.03    0.00  127.85    1.83    4.35    0.02    0.00    0.00    0.00    0.00    0.15     0.00    0.00    0.00    0.00
  139    1.47    0.00    0.01    0.00    0.02    0.00  127.31    1.96    3.40    0.02    0.00    0.00    0.00    0.00    0.17     0.00    0.00    0.00    0.00
  140    3.55    0.00    0.01    0.00    0.02    0.00  128.71    2.07    2.68    0.02    0.00    0.00    0.00    0.00    0.01     0.00    0.00    0.00    0.00
  141    3.14    0.00    0.01    0.00    0.02    0.00  128.89    2.89    3.53    0.02    0.00    0.00    0.00    0.00    0.02     0.00    0.00    0.00    0.00
  142    0.16    0.00    0.01    0.00    0.02    0.00  126.46    2.55    4.83    0.02    0.00    0.00    0.00    0.00    0.24     0.00    0.00    0.00    0.00
  143    0.04    0.00    0.01    0.00    0.02    0.00  124.72    1.73    3.96    0.02    0.00    0.00    0.00    0.00    0.02     0.00    0.00    0.00    0.00
  144    1.41    0.00    0.01    0.00    0.02    0.00  123.43    2.64    4.88    0.02    0.00    0.00    0.00    0.00    0.17     0.00    0.00    0.00    0.00
  145    0.11    0.00    0.01    0.00    0.02    0.00  121.79    1.69    4.07    0.01    0.00    0.00    0.00    0.00    0.01     0.00    0.00    0.00    0.00
  146    0.01    0.00    0.01    0.00    0.02    0.00  120.21    1.54    4.07    0.01    0.00    0.00    0.00    0.00    0.01     0.00    0.00    0.00    0.00
  147    4.12    0.01    0.01    0.00    0.02    0.00  121.36    2.90    4.34    0.02    0.00    0.00    0.00    0.00    0.14     0.00    0.00    0.00    0.00
  148    5.57    0.04    0.01    0.00    0.02    0.00  123.44    3.37    4.20    0.02    0.00    0.00    0.00    0.00    0.10     0.00    0.00    0.00    0.00
  149    4.74    0.01    0.01    0.00    0.02    0.00  124.64    3.46    4.10    0.02    0.00    0.00    0.00    0.00    0.09     0.00    0.00    0.00    0.00
  150    1.84    0.00    0.01    0.00    0.02    0.00  124.13    2.31    3.06    0.02    0.00    0.00    0.00    0.00    0.02     0.00    0.00    0.00    0.00
  151    2.46    0.00    0.01    0.00    0.02    0.00  123.77    2.76    3.41    0.01    0.00    0.00    0.00    0.00    0.09     0.00    0.00    0.00    0.00
    5   49.84    0.94    0.36    0.00    0.77    0.02  123.77   61.56  116.84    0.64    0.00    0.00    0.00    0.02    1.68     0.00    0.00    0.00    0.00
  152    0.02    0.00    0.01    0.00    0.02    0.00  121.42    2.33    4.42    0.01    0.00    0.00    0.00    0.00    0.22     0.00    0.00    0.00    0.00
  153    0.02    0.00    0.01    0.00    0.02    0.00  119.42    1.97    4.45    0.01    0.00    0.00    0.00    0.00    0.22     0.00    0.00    0.00    0.00
  154    5.00    0.00    0.01    0.00    0.02    0.00  120.73    3.61    4.64    0.01    0.00    0.00    0.00    0.00    0.06     0.00    0.00    0.00    0.00
  155    3.22    0.00    0.01    0.00    0.02    0.00  120.57    3.32    4.38    0.01    0.00    0.00    0.00    0.00    0.15     0.00    0.00    0.00    0.00
  156    0.99    0.00    0.01    0.00    0.02    0.00  119.13    2.38    3.89    0.01    0.00    0.00    0.00    0.00    0.18     0.00    0.00    0.00    0.00
  157    0.20    0.00    0.01    0.00    0.02    0.00  117.33    1.96    4.05    0.01    0.00    0.00    0.00    0.00    0.06     0.00    0.00    0.00    0.00
  158    0.00    0.00    0.01    0.00    0.02    0.00  115.16    2.13    5.14    0.01    0.00    0.00    0.00    0.00    0.28     0.00    0.00    0.00    0.00
  159    0.13    0.00    0.01    0.00    0.02    0.00  113.20    2.06    5.17    0.01    0.00    0.00    0.00    0.00    0.23     0.00    0.00    0.00    0.00
  160    0.41    0.00    0.01    0.00    0.02    0.00  111.41    2.16    5.32    0.01    0.00    0.00    0.00    0.00    0.27     0.00    0.00    0.00    0.00
  161    1.78    0.00    0.01    0.00    0.02    0.00  110.42    2.74    5.29    0.01    0.00    0.00    0.00    0.00    0.23     0.00    0.00    0.00    0.00
  162    8.51    0.13    0.01    0.00    0.02    0.00  114.31    4.40    5.54    0.02    0.00    0.00    0.00    0.00    0.22     0.00    0.00    0.00    0.00
  163    0.88    0.00    0.01    0.00    0.02    0.00  112.32    2.84    5.09    0.01    0.00    0.00    0.00    0.00    0.14     0.00    0.00    0.00    0.00
  164    6.95    0.09    0.01    0.00    0.02    0.00  115.89    3.16    3.73    0.02    0.00    0.00    0.00    0.00    0.10     0.00    0.00    0.00    0.00
  165   36.44    5.89    0.08    0.00    0.03    0.01  141.47    4.21    4.68    0.65    0.00    0.00    0.00    0.00    0.29     0.02    0.00    0.00    0.00
  166   17.49    1.76    0.08    0.00    0.04    0.05  153.37    3.17    3.45    0.51    0.00    0.00    0.00    0.00    0.12     0.01    0.00    0.00    0.00
  167    1.49    0.00    0.05    0.00    0.04    0.05  152.11    2.64    3.11    0.36    0.00    0.00    0.00    0.00    0.23     0.00    0.00    0.00    0.00
  168    0.00    0.00    0.04    0.00    0.04    0.04  149.14    2.89    4.22    0.27    0.00    0.00    0.00    0.00    0.20     0.00    0.00    0.00    0.00
  169    0.02    0.00    0.03    0.00    0.04    0.03  146.22    2.85    4.83    0.21    0.00    0.00    0.00    0.00    0.37     0.00    0.00    0.00    0.00
  170    0.01    0.00    0.03    0.00    0.04    0.03  143.61    2.54    4.77    0.16    0.00    0.00    0.00    0.00    0.32     0.00    0.00    0.00    0.00
  171    0.09    0.00    0.02    0.00    0.03    0.02  141.15    2.47    4.85    0.13    0.00    0.00    0.00    0.00    0.40     0.00    0.00    0.00    0.00
  172    6.27    0.11    0.02    0.00    0.03    0.02  143.58    3.58    4.39    0.12    0.00    0.00    0.00    0.00    0.35     0.00    0.00    0.00    0.00
  173   10.08    0.81    0.04    0.00    0.04    0.02  148.54    4.02    4.52    0.16    0.00    0.00    0.00    0.00    0.27     0.00    0.00    0.00    0.00
  174    0.00    0.00    0.03    0.00    0.04    0.02  144.81    3.66    5.78    0.13    0.00    0.00    0.00    0.00    0.46     0.00    0.00    0.00    0.00
  175    7.82    0.38    0.03    0.00    0.04    0.03  147.25    4.77    5.61    0.17    0.00    0.00    0.00    0.00    0.28     0.00    0.00    0.00    0.00
  176    4.14    0.04    0.03    0.00    0.04    0.03  146.83    4.35    5.36    0.14    0.00    0.00    0.00    0.00    0.36     0.00    0.00    0.00    0.00
  177    6.16    0.13    0.03    0.00    0.04    0.04  147.50    5.15    5.89    0.14    0.00    0.00    0.00    0.00    0.44     0.00    0.00    0.00    0.00
  178    2.36    0.00    0.03    0.00    0.04    0.03  145.17    4.59    5.84    0.12    0.00    0.00    0.00    0.00    0.46     0.00    0.00    0.00    0.00
  179    0.00    0.00    0.02    0.00    0.04    0.02  142.08    3.01    4.82    0.10    0.00    0.00    0.00    0.00    0.79     0.00    0.00    0.00    0.00
  180    2.68    0.02    0.02    0.00    0.04    0.02  141.17    3.48    4.81    0.08    0.00    0.00    0.00    0.00    0.39     0.00    0.00    0.00    0.00
  181   16.95    1.55    0.05    0.00    0.04    0.06  152.87    3.05    3.14    0.29    0.00    0.00    0.00    0.00    0.43     0.00    0.00    0.00    0.00
    6  140.09   10.91    0.75    0.00    0.89    0.52  152.87   95.51  141.18    3.90    0.00    0.00    0.00    0.03    8.50     0.04    0.00    0.01    0.02
  182    1.05    0.00    0.04    0.00    0.04    0.06  149.43    4.41    5.06    0.21    0.00    0.00    0.00    0.00    0.58     0.00    0.00    0.00    0.00
  183    1.48    0.01    0.03    0.00    0.04    0.05  146.97    3.81    5.02    0.17    0.00    0.00    0.00    0.00    0.79     0.00    0.00    0.00    0.00
  184   39.72    9.21    0.13    0.00    0.05    0.13  171.38    4.56    4.71    0.99    0.00    0.00    0.00    0.00    0.56     0.00    0.00    0.00    0.00
  185   14.14    1.47    0.12    0.00    0.06    0.22  178.62    4.33    4.46    0.82    0.00    0.00    0.00    0.00    0.44     0.00    0.00    0.00    0.01
  186    5.73    0.14    0.11    0.00    0.06    0.24  179.11    4.45    4.60    0.68    0.00    0.00    0.00    0.00    0.52     0.00    0.00    0.00    0.01
  187    0.00    0.00    0.09    0.00    0.06    0.20  175.39    3.45    4.26    0.54    0.00    0.00    0.00    0.00    0.65     0.00    0.00    0.00    0.01
  188    0.00    0.00    0.08    0.00    0.06    0.15  171.29    3.86    5.28    0.44    0.00    0.00    0.00    0.00    0.60     0.00    0.00    0.00    0.00
  189    0.05    0.00    0.07    0.00    0.05    0.12  167.29    3.84    5.51    0.36    0.00    0.00    0.00    0.00    0.54     0.00    0.00    0.00    0.00
  190    0.00    0.00    0.06    0.00    0.05    0.09  162.78    4.30    6.37    0.30    0.00    0.00    0.00    0.00    0.43     0.00    0.00    0.00    0.00
  191    0.41    0.00    0.06    0.00    0.05    0.07  158.93    4.07    5.94    0.25    0.00    0.00    0.00    0.00    0.37     0.00    0.00    0.00    0.00
  192    0.00    0.00    0.05    0.00    0.05    0.06  154.54    4.21    6.33    0.21    0.00    0.00    0.00    0.00    0.41     0.00    0.00    0.00    0.00
  193    0.00    0.00    0.05    0.00    0.04    0.04  150.93    3.44    5.16    0.18    0.00    0.00    0.00    0.00    0.45     0.00    0.00    0.00    0.00
  194    0.00    0.00    0.05    0.00    0.04    0.03  146.66    4.10    6.17    0.16    0.00    0.00    0.00    0.00    0.42     0.00    0.00    0.00    0.00
  195    0.00    0.00    0.04    0.00    0.04    0.03  142.34    4.16    6.21    0.14    0.00    0.00    0.00    0.00    0.38     0.00    0.00    0.00    0.00
  196    0.00    0.00    0.04    0.00    0.04    0.02  137.91    4.29    6.33    0.12    0.00    0.00    0.00    0.00    0.26     0.00    0.00    0.00    0.00
  197    4.77    0.03    0.04    0.00    0.03    0.02  137.64    4.86    5.57    0.11    0.00    0.00    0.00    0.00    0.23     0.00    0.00    0.00    0.00
  198    3.30    0.03    0.04    0.00    0.03    0.01  136.31    4.44    5.27    0.10    0.00    0.00    0.00    0.00    0.26     0.00    0.00    0.00    0.00
  199   10.94    0.44    0.05    0.00    0.03    0.01  141.88    4.68    4.81    0.13    0.00    0.00    0.00    0.00    0.28     0.00    0.00    0.00    0.00
  200    3.12    0.01    0.04    0.00    0.03    0.01  140.23    4.64    4.96    0.11    0.00    0.00    0.00    0.00    0.24     0.00    0.00    0.00    0.00
  201    3.46    0.05    0.04    0.00    0.03    0.01  138.76    4.74    5.29    0.10    0.00    0.00    0.00    0.00    0.20     0.00    0.00    0.00    0.00
  202    2.12    0.01    0.04    0.00    0.03    0.00  136.34    4.40    4.99    0.09    0.00    0.00    0.00    0.00    0.22     0.00    0.00    0.00    0.00
  203    0.00    0.00    0.03    0.00    0.03    0.00  131.79    4.44    5.55    0.08    0.00    0.00    0.00    0.00    0.22     0.00    0.00    0.00    0.00
  204    0.00    0.00    0.03    0.00    0.03    0.00  127.28    4.41    5.66    0.07    0.00    0.00    0.00    0.00    0.24     0.00    0.00    0.00    0.00
  205    0.14    0.00    0.03    0.00    0.02    0.00  123.49    3.83    4.90    0.06    0.00    0.00    0.00    0.00    0.33     0.00    0.00    0.00    0.00
  206    0.02    0.00    0.03    0.00    0.02    0.00  119.31    4.10    5.31    0.06    0.00    0.00    0.00    0.00    0.27     0.00    0.00    0.00    0.00
  207    0.16    0.00    0.03    0.00    0.02    0.00  115.22    4.17    5.36    0.05    0.00    0.00    0.00    0.00    0.25     0.00    0.00    0.00    0.00
  208    0.00    0.00    0.03    0.00    0.02    0.00  111.40    3.73    4.86    0.05    0.00    0.00    0.00    0.00    0.25     0.00    0.00    0.00    0.00
  209    0.06    0.00    0.02    0.00    0.01    0.00  107.74    3.65    4.72    0.04    0.00    0.00    0.00    0.00    0.19     0.00    0.00    0.00    0.00
  210    1.20    0.00    0.02    0.00    0.01    0.00  104.21    4.66    5.72    0.04    0.00    0.00    0.00    0.00    0.19     0.00    0.00    0.00    0.00
  211    6.96    0.01    0.02    0.00    0.01    0.00  105.47    5.61    5.95    0.04    0.00    0.00    0.00    0.00    0.10     0.00    0.00    0.00    0.00
  212   12.64    0.17    0.03    0.00    0.01    0.00  113.13    4.55    4.58    0.06    0.00    0.00    0.00    0.00    0.08     0.00    0.00    0.00    0.00
    7  111.48   11.59    1.54    0.00    1.12    1.59  113.13  132.20  164.90    6.78    0.00    0.00    0.00    0.02   10.96     0.01    0.00    0.00    0.05
  213    0.88    0.00    0.02    0.00    0.01    0.00  109.72    4.31    4.71    0.05    0.00    0.00    0.00    0.00    0.11     0.00    0.00    0.00    0.00
  214    0.35    0.00    0.02    0.00    0.01    0.00  105.64    4.40    5.12    0.04    0.00    0.00    0.00    0.00    0.10     0.00    0.00    0.00    0.00
  215   10.92    0.49    0.02    0.00    0.02    0.00  111.59    4.12    4.29    0.05    0.00    0.00    0.00    0.00    0.08     0.00    0.00    0.00    0.00
  216    0.02    0.00    0.02    0.00    0.01    0.00  107.12    4.66    5.39    0.04    0.00    0.00    0.00    0.00    0.10     0.00    0.00    0.00    0.00
  217    0.00    0.00    0.02    0.00    0.01    0.00  102.63    4.44    5.44    0.04    0.00    0.00    0.00    0.00    0.12     0.00    0.00    0.00    0.00
  218    0.04    0.00    0.02    0.00    0.01    0.00   97.98    4.64    5.79    0.03    0.00    0.00    0.00    0.00    0.17     0.00    0.00    0.00    0.00
  219    0.10    0.00    0.02    0.00    0.01    0.00   93.37    4.67    5.90    0.03    0.00    0.00    0.00    0.00    0.10     0.00    0.00    0.00    0.00
  220    0.28    0.00    0.01    0.00    0.01    0.00   88.41    5.19    6.60    0.03    0.00    0.00    0.00    0.00    0.08     0.00    0.00    0.00    0.00
  221    0.33    0.00    0.01    0.00    0.01    0.00   84.89    3.82    5.00    0.03    0.00    0.00    0.00    0.00    0.07     0.00    0.00    0.00    0.00
  222   18.60    0.47    0.02    0.00    0.01    0.00   98.29    3.54    3.62    0.05    0.00    0.00    0.00    0.00    0.07     0.00    0.00    0.00    0.00
  223    0.39    0.00    0.02    0.00    0.01    0.00   95.60    4.06    4.50    0.04    0.00    0.00    0.00    0.00    0.15     0.00    0.00    0.00    0.00
  224    0.02    0.00    0.02    0.00    0.01    0.00   91.71    3.86    4.64    0.03    0.00    0.00    0.00    0.00    0.13     0.00    0.00    0.00    0.00
  225    1.06    0.00    0.01    0.00    0.01    0.00   88.81    3.93    4.60    0.03    0.00    0.00    0.00    0.00    0.14     0.00    0.00    0.00    0.00
  226    0.42    0.00    0.01    0.00    0.01    0.00   85.18    4.01    4.98    0.03    0.00    0.00    0.00    0.00    0.15     0.00    0.00    0.00    0.00
  227    0.09    0.00    0.01    0.00    0.01    0.00   81.37    3.87    5.05    0.02    0.00    0.00    0.00    0.00    0.08     0.00    0.00    0.00    0.00
  228    2.54    0.00    0.01    0.00    0.01    0.00   79.43    4.39    5.37    0.02    0.00    0.00    0.00    0.00    0.09     0.00    0.00    0.00    0.00
  229    7.26    0.01    0.01    0.00    0.01    0.00   82.34    3.66    3.84    0.02    0.00    0.00    0.00    0.00    0.07     0.00    0.00    0.00    0.00
  230    0.11    0.00    0.01    0.00    0.01    0.00   79.17    3.93    4.84    0.02    0.00    0.00    0.00    0.00    0.06     0.00    0.00    0.00    0.00
  231    1.88    0.00    0.01    0.00    0.01    0.00   77.30    3.67    4.38    0.02    0.00    0.00    0.00    0.00    0.07     0.00    0.00    0.00    0.00
  232    0.47    0.00    0.01    0.00    0.01    0.00   74.54    3.25    4.29    0.02    0.00    0.00    0.00    0.00    0.06     0.00    0.00    0.00    0.00
  233    1.99    0.00    0.01    0.00    0.01    0.00   73.34    2.89    3.67    0.02    0.00    0.00    0.00    0.00    0.06     0.00    0.00    0.00    0.00
  234    2.20    0.00    0.01    0.00    0.01    0.00   72.13    3.49    4.38    0.01    0.00    0.00    0.00    0.00    0.05     0.00    0.00    0.00    0.00
  235    0.00    0.00    0.01    0.00    0.00    0.00   69.56    2.72    4.11    0.01    0.00    0.00    0.00    0.00    0.08     0.00    0.00    0.00    0.00
  236    1.90    0.00    0.01    0.00    0.00    0.00   68.48    2.72    3.93    0.01    0.00    0.00    0.00    0.00    0.10     0.00    0.00    0.00    0.00
  237    1.23    0.00    0.01    0.00    0.00    0.00   67.10    2.76    4.02    0.01    0.00    0.00    0.00    0.00    0.08     0.00    0.00    0.00    0.00
  238    6.13    0.00    0.01    0.00    0.00    0.00   68.98    3.88    4.95    0.01    0.00    0.00    0.00    0.00    0.05     0.00    0.00    0.00    0.00
  239    0.14    0.00    0.01    0.00    0.00    0.00   66.43    3.06    4.70    0.01    0.00    0.00    0.00    0.00    0.05     0.00    0.00    0.00    0.00
  240    1.65    0.00    0.01    0.00    0.00    0.00   64.84    3.17    4.78    0.01    0.00    0.00    0.00    0.00    0.03     0.00    0.00    0.00    0.00
  241    3.61    0.00    0.01    0.00    0.00    0.00   64.60    3.78    4.54    0.01    0.00    0.00    0.00    0.00    0.03     0.00    0.00    0.00    0.00
  242    2.19    0.00    0.01    0.00    0.00    0.00   63.70    3.13    3.90    0.01    0.00    0.00    0.00    0.00    0.03     0.00    0.00    0.00    0.00
  243    0.02    0.00    0.01    0.00    0.00    0.00   61.21    2.52    4.36    0.01    0.00    0.00    0.00    0.00    0.03     0.00    0.00    0.00    0.00
    8   66.79    0.97    0.39    0.00    0.23    0.00   61.21  116.54  145.69    0.78    0.00    0.00    0.00    0.00    2.61     0.00    0.00    0.00    0.00
  244    0.59    0.00    0.01    0.00    0.00    0.00   59.18    2.60    4.32    0.01    0.00    0.00    0.00    0.00    0.05     0.00    0.00    0.00    0.00
  245    0.05    0.00    0.01    0.00    0.00    0.00   56.90    2.31    4.66    0.01    0.00    0.00    0.00    0.00    0.04     0.00    0.00    0.00    0.00
  246    0.20    0.00    0.01    0.00    0.00    0.00   54.74    2.35    5.19    0.01    0.00    0.00    0.00    0.00    0.03     0.00    0.00    0.00    0.00
  247    0.79    0.00    0.01    0.00    0.00    0.00   53.56    1.95    3.82    0.01    0.00    0.00    0.00    0.00    0.04     0.00    0.00    0.00    0.00
  248    5.95    0.00    0.01    0.00    0.00    0.00   55.62    2.99    3.40    0.01    0.00    0.00    0.00    0.00    0.03     0.00    0.00    0.00    0.00
  249    2.65    0.00    0.01    0.00    0.00    0.00   55.44    3.01    3.55    0.01    0.00    0.00    0.00    0.00    0.04     0.00    0.00    0.00    0.00
  250    0.18    0.00    0.00    0.00    0.00    0.00   54.49    1.74    2.65    0.01    0.00    0.00    0.00    0.00    0.03     0.00    0.00    0.00    0.00
  251    0.00    0.00    0.00    0.00    0.00    0.00   52.63    1.90    3.67    0.01    0.00    0.00    0.00    0.00    0.03     0.00    0.00    0.00    0.00
  252    0.42    0.00    0.00    0.00    0.00    0.00   51.05    1.98    4.15    0.01    0.00    0.00    0.00    0.00    0.03     0.00    0.00    0.00    0.00
  253   13.49    0.01    0.01    0.00    0.00    0.00   59.36    3.11    3.29    0.01    0.00    0.00    0.00    0.00    0.04     0.00    0.00    0.00    0.00
  254    0.10    0.00    0.01    0.00    0.00    0.00   58.35    2.54    2.94    0.01    0.00    0.00    0.00    0.00    0.06     0.00    0.00    0.00    0.00
  255    9.90    0.00    0.01    0.00    0.00    0.00   64.26    2.03    2.08    0.02    0.00    0.00    0.00    0.00    0.02     0.00    0.00    0.00    0.00
  256    0.17    0.00    0.01    0.00    0.00    0.00   63.30    2.40    2.59    0.01    0.00    0.00    0.00    0.00    0.03     0.00    0.00    0.00    0.00
  257    0.15    0.00    0.01    0.00    0.00    0.00   62.14    2.42    2.76    0.01    0.00    0.00    0.00    0.00    0.04     0.00    0.00    0.00    0.00
  258    7.60    0.00    0.01    0.00    0.00    0.00   65.00    2.42    2.46    0.01    0.00    0.00    0.00    0.00    0.01     0.00    0.00    0.00    0.00
  259   14.82    0.05    0.02    0.00    0.00    0.00   77.57    1.20    1.22    0.03    0.00    0.00    0.00    0.00    0.03     0.00    0.00    0.00    0.00
  260    0.12    0.00    0.02    0.00    0.00    0.00   76.88    1.58    1.64    0.02    0.00    0.00    0.00    0.00    0.06     0.00    0.00    0.00    0.00
  261    0.44    0.00    0.01    0.00    0.00    0.00   76.05    2.18    2.27    0.01    0.00    0.00    0.00    0.00    0.06     0.00    0.00    0.00    0.00
  262    0.68    0.00    0.01    0.00    0.00    0.00   75.37    2.09    2.19    0.01    0.00    0.00    0.00    0.00    0.06     0.00    0.00    0.00    0.00
  263    0.39    0.00    0.01    0.00    0.00    0.00   74.69    1.47    1.60    0.01    0.00    0.00    0.00    0.00    0.02     0.00    0.00    0.00    0.00
  264    1.31    0.00    0.01    0.00    0.00    0.00   74.61    1.36    1.42    0.01    0.00    0.00    0.00    0.00    0.02     0.00    0.00    0.00    0.00
  265    0.98    0.00    0.01    0.00    0.00    0.00   74.22    1.35    1.44    0.01    0.00    0.00    0.00    0.00    0.03     0.00    0.00    0.00    0.00
  266    0.07    0.00    0.01    0.00    0.00    0.00   73.05    1.43    1.62    0.01    0.00    0.00    0.00    0.00    0.00     0.00    0.00    0.00    0.00
  267    0.00    0.00    0.00    0.00    0.00    0.00   71.13    1.93    2.31    0.01    0.00    0.00    0.00    0.00    0.06     0.00    0.00    0.00    0.00
  268    0.00    0.00    0.00    0.00    0.00    0.00   68.79    2.33    2.90    0.01    0.00    0.00    0.00    0.00    0.09     0.00    0.00    0.00    0.00
  269    0.00    0.00    0.00    0.00    0.00    0.00   66.20    2.59    3.32    0.01    0.00    0.00    0.00    0.00    0.21     0.00    0.00    0.00    0.00
  270    0.02    0.00    0.00    0.00    0.00    0.00   63.78    2.43    3.20    0.00    0.00    0.00    0.00    0.00    0.08     0.00    0.00    0.00    0.00
  271    0.08    0.00    0.00    0.00    0.00    0.00   61.61    2.23    3.01    0.00    0.00    0.00    0.00    0.00    0.03     0.00    0.00    0.00    0.00
  272    2.83    0.00    0.00    0.00    0.00    0.00   61.45    2.57    2.94    0.00    0.00    0.00    0.00    0.00    0.04     0.00    0.00    0.00    0.00
  273    6.11    0.00    0.00    0.00    0.00    0.00   64.43    1.48    1.52    0.01    0.00    0.00    0.00    0.00    0.04     0.00    0.00    0.00    0.00
    9   70.08    0.06    0.21    0.00    0.10    0.00   64.43   63.97   84.14    0.27    0.00    0.00    0.00    0.00    1.35     0.00    0.00    0.00    0.00
  274    8.65    0.00    0.01    0.00    0.00    0.00   70.29    2.10    2.14    0.01    0.00    0.00    0.00    0.00    0.04     0.00    0.00    0.00    0.00
  275    1.92    0.00    0.01    0.00    0.00    0.00   70.68    1.63    1.67    0.01    0.00    0.00    0.00    0.00    0.03     0.00    0.00    0.00    0.00
  276    9.80    0.02    0.02    0.00    0.00    0.00   78.47    1.28    1.30    0.03    0.00    0.00    0.00    0.00    0.01     0.00    0.00    0.00    0.00
  277    0.70    0.00    0.01    0.00    0.00    0.01   78.14    1.30    1.33    0.02    0.00    0.00    0.00    0.00    0.02     0.00    0.00    0.00    0.00
  278    2.62    0.00    0.01    0.00    0.00    0.01   79.30    1.38    1.41    0.02    0.00    0.00    0.00    0.00    0.02     0.00    0.00    0.00    0.00
  279    0.25    0.00    0.01    0.00    0.00    0.01   78.65    1.72    1.79    0.02    0.00    0.00    0.00    0.00    0.02     0.00    0.00    0.00    0.00
  280    2.82    0.00    0.01    0.00    0.00    0.01   79.44    1.67    1.70    0.02    0.00    0.00    0.00    0.00    0.01     0.00    0.00    0.00    0.00
  281    0.99    0.00    0.01    0.00    0.00    0.01   79.31    1.37    1.43    0.02    0.00    0.00    0.00    0.00    0.00     0.00    0.00    0.00    0.00
  282    0.02    0.00    0.01    0.00    0.00    0.01   78.53    1.65    1.79    0.01    0.00    0.00    0.00    0.00    0.02     0.00    0.00    0.00    0.00
  283    2.03    0.00    0.01    0.00    0.00    0.00   78.88    1.46    1.51    0.01    0.00    0.00    0.00    0.00    0.00     0.00    0.00    0.00    0.00
  284   12.72    0.31    0.02    0.00    0.01    0.02   88.12    1.15    1.17    0.05    0.00    0.00    0.00    0.00    0.00     0.00    0.00    0.00    0.00
  285    0.26    0.00    0.01    0.00    0.01    0.02   87.61    1.24    1.29    0.04    0.00    0.00    0.00    0.00    0.00     0.00    0.00    0.00    0.00
  286    1.89    0.00    0.01    0.00    0.01    0.02   88.16    0.94    0.96    0.03    0.00    0.00    0.00    0.00    0.00     0.00    0.00    0.00    0.00
  287    1.32    0.00    0.01    0.00    0.01    0.02   88.53    0.93    0.95    0.03    0.00    0.00    0.00    0.00    0.00     0.00    0.00    0.00    0.00
  288    1.47    0.00    0.01    0.00    0.01    0.01   88.83    1.33    1.37    0.03    0.00    0.00    0.00    0.00    0.00     0.00    0.00    0.00    0.00
  289    4.99    0.00    0.01    0.00    0.01    0.02   92.26    0.99    1.02    0.04    0.00    0.00    0.00    0.00    0.00     0.00    0.00    0.00    0.00
  290    0.27    0.00    0.01    0.00    0.01    0.02   91.76    1.27    1.31    0.03    0.00    0.00    0.00    0.00    0.00     0.00    0.00    0.00    0.00
  291    1.15    0.00    0.01    0.00    0.01    0.01   91.97    1.21    1.26    0.02    0.00    0.00    0.00    0.00    0.00     0.00    0.00    0.00    0.00
  292    2.93    0.00    0.01    0.00    0.01    0.01   93.96    0.67    0.69    0.02    0.00    0.00    0.00    0.00    0.00     0.00    0.00    0.00    0.00
  293    2.10    0.00    0.01    0.00    0.01    0.01   95.13    0.82    0.84    0.02    0.00    0.00    0.00    0.00    0.00     0.00    0.00    0.00    0.00
  294    0.00    0.00    0.01    0.00    0.01    0.01   94.53    1.27    1.33    0.02    0.00    0.00    0.00    0.00    0.00     0.00    0.00    0.00    0.00
  295    0.00    0.00    0.01    0.00    0.01    0.00   94.04    1.05    1.13    0.01    0.00    0.00    0.00    0.00    0.00     0.00    0.00    0.00    0.00
  296    0.00    0.00    0.01    0.00    0.01    0.00   93.38    1.26    1.38    0.01    0.00    0.00    0.00    0.00    0.00     0.00    0.00    0.00    0.00
  297    0.29    0.00    0.01    0.00    0.01    0.00   92.89    0.99    1.07    0.01    0.00    0.00    0.00    0.00    0.00     0.00    0.00    0.00    0.00
  298    1.05    0.00    0.01    0.00    0.01    0.00   92.81    1.10    1.16    0.01    0.00    0.00    0.00    0.00    0.00     0.00    0.00    0.00    0.00
  299    0.00    0.00    0.00    0.00    0.01    0.00   92.02    1.22    1.35    0.01    0.00    0.00    0.00    0.00    0.00     0.00    0.00    0.00    0.00
  300    0.10    0.00    0.00    0.00    0.01    0.00   90.83    1.30    1.46    0.01    0.00    0.00    0.00    0.00    0.00     0.00    0.00    0.00    0.00
  301    0.00    0.00    0.00    0.00    0.01    0.00   88.98    1.83    2.12    0.01    0.00    0.00    0.00    0.00    0.19     0.00    0.00    0.00    0.00
  302    0.00    0.00    0.00    0.00    0.01    0.00   88.03    0.93    1.11    0.01    0.00    0.00    0.00    0.00    0.00     0.00    0.00    0.00    0.00
  303    0.00    0.00    0.00    0.00    0.01    0.00   87.02    0.98    1.19    0.01    0.00    0.00    0.00    0.00    0.00     0.00    0.00    0.00    0.00
  304    0.01    0.00    0.00    0.00    0.01    0.00   86.06    0.96    1.17    0.01    0.00    0.00    0.00    0.00    0.00     0.00    0.00    0.00    0.00
   10   60.36    0.34    0.26    0.00    0.23    0.23   86.06   39.01   41.39    0.57    0.00    0.00    0.00    0.00    0.36     0.00    0.00    0.00    0.00
  305    0.07    0.00    0.00    0.00    0.01    0.00   85.58    0.54    0.65    0.01    0.00    0.00    0.00    0.00    0.00     0.00    0.00    0.00    0.00
  306    0.00    0.00    0.00    0.00    0.01    0.00   84.69    0.87    1.08    0.00    0.00    0.00    0.00    0.00    0.00     0.00    0.00    0.00    0.00
  307    0.00    0.00    0.00    0.00    0.01    0.00   83.87    0.80    0.99    0.00    0.00    0.00    0.00    0.00    0.00     0.00    0.00    0.00    0.00
  308    0.01    0.00    0.00    0.00    0.01    0.00   83.31    0.56    0.69    0.00    0.00    0.00    0.00    0.00    0.00     0.00    0.00    0.00    0.00
  309    0.00    0.00    0.00    0.00    0.01    0.00   82.65    0.64    0.81    0.00    0.00    0.00    0.00    0.00    0.00     0.00    0.00    0.00    0.00
  310    0.03    0.00    0.00    0.00    0.00    0.00   82.11    0.56    0.70    0.00    0.00    0.00    0.00    0.00    0.00     0.00    0.00    0.00    0.00
  311    0.04    0.00    0.00    0.00    0.00    0.00   81.45    0.70    0.87    0.00    0.00    0.00    0.00    0.00    0.00     0.00    0.00    0.00    0.00
  312    0.28    0.00    0.00    0.00    0.00    0.00   80.98    0.69    0.84    0.00    0.00    0.00    0.00    0.00    0.00     0.00    0.00    0.00    0.00
  313    3.10    0.00    0.00    0.00    0.00    0.00   82.44    0.53    0.57    0.00    0.00    0.00    0.00    0.00    0.00     0.00    0.00    0.00    0.00
  314    0.09    0.00    0.00    0.00    0.00    0.00   82.17    0.50    0.55    0.00    0.00    0.00    0.00    0.00    0.00     0.00    0.00    0.00    0.00
  315    0.00    0.00    0.00    0.00    0.00    0.00   81.87    0.47    0.52    0.00    0.00    0.00    0.00    0.00    0.00     0.00    0.00    0.00    0.00
  316    0.16    0.00    0.00    0.00    0.00    0.00   81.58    0.39    0.45    0.00    0.00    0.00    0.00    0.00    0.00     0.00    0.00    0.00    0.00
  317    2.17    0.00    0.00    0.00    0.00    0.00   81.43    0.33    0.36    0.00    0.00    0.00    0.00    0.00    0.00     0.00    0.00    0.00    0.00
  318    0.33    0.00    0.00    0.00    0.00    0.00   81.29    0.31    0.35    0.00    0.00    0.00    0.00    0.00    0.00     0.00    0.00    0.00    0.00
  319    0.00    0.00    0.00    0.00    0.00    0.00   81.16    0.31    0.35    0.00    0.00    0.00    0.00    0.00    0.00     0.00    0.00    0.00    0.00
  320    0.00    0.00    0.00    0.00    0.00    0.00   81.00    0.34    0.38    0.00    0.00    0.00    0.00    0.00    0.00     0.00    0.00    0.00    0.00
  321    0.27    0.00    0.00    0.00    0.00    0.00   80.84    0.41    0.46    0.00    0.00    0.00    0.00    0.00    0.00     0.00    0.00    0.00    0.00
  322    0.02    0.00    0.00    0.00    0.00    0.00   80.83    0.36    0.40    0.00    0.00    0.00    0.00    0.00    0.00     0.00    0.00    0.00    0.00
  323    1.16    0.01    0.00    0.00    0.00    0.00   82.12    0.35    0.37    0.01    0.00    0.00    0.00    0.00    0.00     0.00    0.00    0.00    0.00
  324   17.53    2.42    0.01    0.00    0.01    0.00   94.83    0.35    0.36    0.16    0.00    0.00    0.00    0.00    0.00     0.00    0.00    0.00    0.00
  325   10.60    0.00    0.01    0.00    0.01    0.00   94.97    0.40    0.42    0.09    0.00    0.00    0.00    0.00    0.00     0.00    0.00    0.00    0.00
  326    0.07    0.00    0.01    0.00    0.01    0.00   94.82    0.29    0.30    0.06    0.00    0.00    0.00    0.00    0.00     0.00    0.00    0.00    0.00
  327    4.40    0.00    0.00    0.00    0.01    0.00   94.70    0.23    0.24    0.04    0.00    0.00    0.00    0.00    0.00     0.00    0.00    0.00    0.00
  328    6.48    0.00    0.00    0.00    0.01    0.00   94.58    0.23    0.24    0.03    0.00    0.00    0.00    0.00    0.00     0.00    0.00    0.00    0.00
  329    0.14    0.00    0.00    0.00    0.01    0.00   94.46    0.22    0.23    0.03    0.00    0.00    0.00    0.00    0.00     0.00    0.00    0.00    0.00
  330    0.02    0.00    0.00    0.00    0.01    0.00   94.33    0.26    0.27    0.03    0.00    0.00    0.00    0.00    0.00     0.00    0.00    0.00    0.00
  331    0.02    0.00    0.00    0.00    0.01    0.00   94.21    0.24    0.26    0.02    0.00    0.00    0.00    0.00    0.00     0.00    0.00    0.00    0.00
  332    7.14    0.00    0.00    0.00    0.00    0.00   94.09    0.23    0.24    0.02    0.00    0.00    0.00    0.00    0.00     0.00    0.00    0.00    0.00
  333    5.65    0.00    0.00    0.00    0.00    0.00   93.98    0.21    0.22    0.02    0.00    0.00    0.00    0.00    0.00     0.00    0.00    0.00    0.00
  334    0.78    0.00    0.00    0.00    0.00    0.00   93.90    0.14    0.15    0.02    0.00    0.00    0.00    0.00    0.00     0.00    0.00    0.00    0.00
   11   60.55    2.43    0.12    0.00    0.15    0.00   93.90   12.46   14.34    0.59    0.00    0.00    0.00    0.00    0.00     0.00    0.00    0.00    0.00
  335    0.29    0.00    0.00    0.00    0.00    0.00   93.83    0.14    0.14    0.01    0.00    0.00    0.00    0.00    0.00     0.00    0.00    0.00    0.00
  336    0.00    0.00    0.00    0.00    0.00    0.00   93.79    0.06    0.06    0.01    0.00    0.00    0.00    0.00    0.00     0.00    0.00    0.00    0.00
  337    0.00    0.00    0.00    0.00    0.00    0.00   93.77    0.02    0.02    0.01    0.00    0.00    0.00    0.00    0.00     0.00    0.00    0.00    0.00
  338    0.06    0.00    0.00    0.00    0.00    0.00   93.71    0.13    0.13    0.01    0.00    0.00    0.00    0.00    0.00     0.00    0.00    0.00    0.00
  339    0.00    0.00    0.00    0.00    0.00    0.00   93.62    0.17    0.18    0.01    0.00    0.00    0.00    0.00    0.00     0.00    0.00    0.00    0.00
  340    0.00    0.00    0.00    0.00    0.00    0.00   93.55    0.14    0.15    0.01    0.00    0.00    0.00    0.00    0.00     0.00    0.00    0.00    0.00
  341    0.02    0.00    0.00    0.00    0.00    0.00   93.49    0.12    0.12    0.01    0.00    0.00    0.00    0.00    0.00     0.00    0.00    0.00    0.00
  342    0.00    0.00    0.00    0.00    0.00    0.00   93.44    0.10    0.10    0.01    0.00    0.00    0.00    0.00    0.00     0.00    0.00    0.00    0.00
  343    0.02    0.00    0.00    0.00    0.00    0.00   93.43    0.02    0.02    0.01    0.00    0.00    0.00    0.00    0.00     0.00    0.00    0.00    0.00
  344    0.75    0.00    0.00    0.00    0.00    0.00   93.42    0.01    0.01    0.01    0.00    0.00    0.00    0.00    0.00     0.00    0.00    0.00    0.00
  345    6.63    0.00    0.00    0.00    0.00    0.00   93.35    0.16    0.17    0.01    0.00    0.00    0.00    0.00    0.00     0.00    0.00    0.00    0.00
  346    1.06    0.00    0.00    0.00    0.00    0.00   93.29    0.12    0.13    0.01    0.00    0.00    0.00    0.00    0.00     0.00    0.00    0.00    0.00
  347    2.82    0.00    0.00    0.00    0.00    0.00   93.26    0.06    0.07    0.01    0.00    0.00    0.00    0.00    0.00     0.00    0.00    0.00    0.00
  348    5.77    0.00    0.00    0.00    0.00    0.00   93.18    0.17    0.18    0.01    0.00    0.00    0.00    0.00    0.00     0.00    0.00    0.00    0.00
  349    1.55    0.00    0.00    0.00    0.00    0.00   93.10    0.17    0.18    0.00    0.00    0.00    0.00    0.00    0.00     0.00    0.00    0.00    0.00
  350    0.02    0.00    0.00    0.00    0.00    0.00   93.10    0.00    0.00    0.00    0.00    0.00    0.00    0.00    0.00     0.00    0.00    0.00    0.00
  351    0.06    0.00    0.00    0.00    0.00    0.00   93.10    0.00    0.00    0.00    0.00    0.00    0.00    0.00    0.00     0.00    0.00    0.00    0.00
  352    0.00    0.00    0.00    0.00    0.00    0.00   93.10    0.00    0.00    0.00    0.00    0.00    0.00    0.00    0.00     0.00    0.00    0.00    0.00
  353    0.02    0.00    0.00    0.00    0.00    0.00   93.10    0.00    0.00    0.00    0.00    0.00    0.00    0.00    0.00     0.00    0.00    0.00    0.00
  354    0.00    0.00    0.00    0.00    0.00    0.00   93.10    0.00    0.00    0.00    0.00    0.00    0.00    0.00    0.00     0.00    0.00    0.00    0.00
  355    3.43    0.00    0.00    0.00    0.00    0.00   93.10    0.00    0.00    0.00    0.00    0.00    0.00    0.00    0.00     0.00    0.00    0.00    0.00
  356    0.42    0.00    0.00    0.00    0.00    0.00   93.10    0.00    0.00    0.00    0.00    0.00    0.00    0.00    0.00     0.00    0.00    0.00    0.00
  357    0.00    0.00    0.00    0.00    0.00    0.00   93.10    0.00    0.00    0.00    0.00    0.00    0.00    0.00    0.00     0.00    0.00    0.00    0.00
  358    0.02    0.00    0.00    0.00    0.00    0.00   93.10    0.00    0.00    0.00    0.00    0.00    0.00    0.00    0.00     0.00    0.00    0.00    0.00
  359    0.03    0.00    0.00    0.00    0.00    0.00   93.10    0.00    0.00    0.00    0.00    0.00    0.00    0.00    0.00     0.00    0.00    0.00    0.00
  360    0.06    0.00    0.00    0.00    0.00    0.00   93.10    0.00    0.00    0.00    0.00    0.00    0.00    0.00    0.00     0.00    0.00    0.00    0.00
  361    0.63    0.00    0.00    0.00    0.00    0.00   93.08    0.07    0.10    0.00    0.00    0.00    0.00    0.00    0.00     0.00    0.00    0.00    0.00
  362    0.06    0.00    0.00    0.00    0.00    0.00   93.06    0.04    0.06    0.00    0.00    0.00    0.00    0.00    0.00     0.00    0.00    0.00    0.00
  363    0.00    0.00    0.00    0.00    0.00    0.00   93.06    0.00    0.00    0.00    0.00    0.00    0.00    0.00    0.00     0.00    0.00    0.00    0.00
  364    0.03    0.00    0.00    0.00    0.00    0.00   93.06    0.00    0.00    0.00    0.00    0.00    0.00    0.00    0.00     0.00    0.00    0.00    0.00
  365    0.00    0.00    0.00    0.00    0.00    0.00   93.03    0.11    0.15    0.00    0.00    0.00    0.00    0.00    0.00     0.00    0.00    0.00    0.00
   12   23.73    0.00    0.04    0.00    0.04    0.00   93.03    1.80    1.98    0.17    0.00    0.00    0.00    0.00    0.00     0.00    0.00    0.00    0.00

 1983  671.68   45.27    4.64    0.00    5.42    3.70   93.03  601.40  830.37   20.72    0.01    0.00    0.02    0.13   26.01     0.10    0.00    0.01    0.10
1
    SWAT Sep 7    VER 2018/Rev 670                                                  

    General Input/Output section (file.cio):                                        
    11/30/2022 2:01:14 PM HAWQS Interface                                           
                                                                                    
Annual Summary for Watershed in year    4 of simulation

UNIT                                    PERCO    TILE                           WATER     SED     NO3     NO3     NO3     NO3        N       P       P
TIME     PREC    SURQ    LATQ     GWQ    LATE       Q     SW       ET     PET   YIELD   YIELD    SURQ    LATQ    PERC    CROP  ORGANIC SOLUBLE ORGANIC TILENO3
         (mm)    (mm)    (mm)    (mm)    (mm)    (mm)    (mm)    (mm)    (mm)    (mm)   (t/ha)  ------------------(kg nutrient/ha)-------------------- (kg/ha)
    1    0.00    0.00    0.00    0.00    0.00    0.00   93.00    0.10    0.14    0.00    0.00    0.00    0.00    0.00    0.00     0.00    0.00    0.00    0.00
    2    0.00    0.00    0.00    0.00    0.00    0.00   92.97    0.11    0.16    0.00    0.00    0.00    0.00    0.00    0.00     0.00    0.00    0.00    0.00
    3    0.00    0.00    0.00    0.00    0.00    0.00   92.89    0.29    0.41    0.00    0.00    0.00    0.00    0.00    0.00     0.00    0.00    0.00    0.00
    4    0.00    0.00    0.00    0.00    0.00    0.00   92.77    0.26    0.41    0.00    0.00    0.00    0.00    0.00    0.00     0.00    0.00    0.00    0.00
    5    0.24    0.00    0.00    0.00    0.00    0.00   92.61    0.27    0.41    0.00    0.00    0.00    0.00    0.00    0.00     0.00    0.00    0.00    0.00
    6    0.00    0.03    0.00    0.00    0.00    0.00   93.36    0.32    0.50    0.00    0.00    0.00    0.00    0.00    0.00     0.00    0.00    0.00    0.00
    7    0.00    0.00    0.00    0.00    0.00    0.00   93.16    0.20    0.34    0.00    0.00    0.00    0.00    0.00    0.00     0.00    0.00    0.00    0.00
    8    0.01    0.00    0.00    0.00    0.00    0.00   92.97    0.19    0.32    0.00    0.00    0.00    0.00    0.00    0.00     0.00    0.00    0.00    0.00
    9    0.14    0.00    0.00    0.00    0.00    0.00   92.92    0.06    0.10    0.00    0.00    0.00    0.00    0.00    0.00     0.00    0.00    0.00    0.00
   10    0.11    0.00    0.00    0.00    0.00    0.00   92.92    0.00    0.00    0.00    0.00    0.00    0.00    0.00    0.00     0.00    0.00    0.00    0.00
   11    0.44    0.00    0.00    0.00    0.00    0.00   92.92    0.00    0.00    0.00    0.00    0.00    0.00    0.00    0.00     0.00    0.00    0.00    0.00
   12    2.43    0.00    0.00    0.00    0.00    0.00   92.92    0.01    0.02    0.00    0.00    0.00    0.00    0.00    0.00     0.00    0.00    0.00    0.00
   13    0.94    0.00    0.00    0.00    0.00    0.00   92.89    0.07    0.09    0.00    0.00    0.00    0.00    0.00    0.00     0.00    0.00    0.00    0.00
   14    0.00    0.00    0.00    0.00    0.00    0.00   92.88    0.05    0.07    0.00    0.00    0.00    0.00    0.00    0.00     0.00    0.00    0.00    0.00
   15    0.00    0.00    0.00    0.00    0.00    0.00   92.88    0.00    0.00    0.00    0.00    0.00    0.00    0.00    0.00     0.00    0.00    0.00    0.00
   16    0.66    0.00    0.00    0.00    0.00    0.00   92.86    0.05    0.07    0.00    0.00    0.00    0.00    0.00    0.00     0.00    0.00    0.00    0.00
   17    0.02    0.00    0.00    0.00    0.00    0.00   92.86    0.00    0.00    0.00    0.00    0.00    0.00    0.00    0.00     0.00    0.00    0.00    0.00
   18    0.00    0.00    0.00    0.00    0.00    0.00   92.86    0.00    0.00    0.00    0.00    0.00    0.00    0.00    0.00     0.00    0.00    0.00    0.00
   19    0.00    0.00    0.00    0.00    0.00    0.00   92.86    0.00    0.00    0.00    0.00    0.00    0.00    0.00    0.00     0.00    0.00    0.00    0.00
   20    0.00    0.00    0.00    0.00    0.00    0.00   92.86    0.00    0.00    0.00    0.00    0.00    0.00    0.00    0.00     0.00    0.00    0.00    0.00
   21    0.00    0.00    0.00    0.00    0.00    0.00   92.86    0.00    0.00    0.00    0.00    0.00    0.00    0.00    0.00     0.00    0.00    0.00    0.00
   22    0.00    0.00    0.00    0.00    0.00    0.00   92.85    0.01    0.02    0.00    0.00    0.00    0.00    0.00    0.00     0.00    0.00    0.00    0.00
   23    0.00    0.00    0.00    0.00    0.00    0.00   92.80    0.17    0.23    0.00    0.00    0.00    0.00    0.00    0.00     0.00    0.00    0.00    0.00
   24    0.12    0.00    0.00    0.00    0.00    0.00   92.73    0.25    0.34    0.00    0.00    0.00    0.00    0.00    0.00     0.00    0.00    0.00    0.00
   25    0.12    0.00    0.00    0.00    0.00    0.00   92.60    0.38    0.52    0.00    0.00    0.00    0.00    0.00    0.00     0.00    0.00    0.00    0.00
   26    3.40    0.00    0.00    0.00    0.00    0.00   92.56    0.14    0.19    0.00    0.00    0.00    0.00    0.00    0.00     0.00    0.00    0.00    0.00
   27    0.09    0.00    0.00    0.00    0.00    0.00   92.53    0.08    0.10    0.00    0.00    0.00    0.00    0.00    0.00     0.00    0.00    0.00    0.00
   28    2.48    0.00    0.00    0.00    0.00    0.00   92.49    0.14    0.20    0.00    0.00    0.00    0.00    0.00    0.00     0.00    0.00    0.00    0.00
   29    0.13    0.00    0.00    0.00    0.00    0.00   92.46    0.06    0.08    0.00    0.00    0.00    0.00    0.00    0.00     0.00    0.00    0.00    0.00
   30    0.42    0.00    0.00    0.00    0.00    0.00   92.44    0.09    0.13    0.00    0.00    0.00    0.00    0.00    0.00     0.00    0.00    0.00    0.00
   31    0.00    0.00    0.00    0.00    0.00    0.00   92.38    0.18    0.25    0.00    0.00    0.00    0.00    0.00    0.00     0.00    0.00    0.00    0.00
    1   11.75    0.03    0.01    0.00    0.01    0.00   92.38    3.50    5.10    0.04    0.00    0.00    0.00    0.00    0.00     0.00    0.00    0.00    0.00
   32    0.07    0.00    0.00    0.00    0.00    0.00   92.28    0.36    0.49    0.00    0.00    0.00    0.00    0.00    0.00     0.00    0.00    0.00    0.00
   33    0.09    0.00    0.00    0.00    0.00    0.00   92.07    0.40    0.60    0.00    0.00    0.00    0.00    0.00    0.00     0.00    0.00    0.00    0.00
   34    1.24    0.00    0.00    0.00    0.00    0.00   91.98    0.29    0.40    0.00    0.00    0.00    0.00    0.00    0.00     0.00    0.00    0.00    0.00
   35    0.77    0.00    0.00    0.00    0.00    0.00   91.87    0.36    0.51    0.00    0.00    0.00    0.00    0.00    0.00     0.00    0.00    0.00    0.00
   36    0.89    0.00    0.00    0.00    0.00    0.00   91.86    0.03    0.04    0.00    0.00    0.00    0.00    0.00    0.00     0.00    0.00    0.00    0.00
   37    0.17    0.00    0.00    0.00    0.00    0.00   91.86    0.00    0.00    0.00    0.00    0.00    0.00    0.00    0.00     0.00    0.00    0.00    0.00
   38    0.00    0.00    0.00    0.00    0.00    0.00   91.86    0.01    0.01    0.00    0.00    0.00    0.00    0.00    0.00     0.00    0.00    0.00    0.00
   39    0.00    0.00    0.00    0.00    0.00    0.00   91.82    0.14    0.19    0.00    0.00    0.00    0.00    0.00    0.00     0.00    0.00    0.00    0.00
   40    0.00    0.00    0.00    0.00    0.00    0.00   91.72    0.35    0.48    0.00    0.00    0.00    0.00    0.00    0.00     0.00    0.00    0.00    0.00
   41    0.03    0.00    0.00    0.00    0.00    0.00   91.50    0.44    0.66    0.00    0.00    0.00    0.00    0.00    0.00     0.00    0.00    0.00    0.00
   42    0.00    0.00    0.00    0.00    0.00    0.00   91.18    0.32    0.56    0.00    0.00    0.00    0.00    0.00    0.00     0.00    0.00    0.00    0.00
   43    1.72    0.00    0.00    0.00    0.00    0.00   91.53    0.33    0.45    0.00    0.00    0.00    0.00    0.00    0.00     0.00    0.00    0.00    0.00
   44    3.89    0.11    0.00    0.00    0.00    0.00   92.82    0.36    0.49    0.01    0.00    0.00    0.00    0.00    0.00     0.00    0.00    0.00    0.00
   45    0.18    0.00    0.00    0.00    0.00    0.00   92.87    0.36    0.50    0.00    0.00    0.00    0.00    0.00    0.00     0.00    0.00    0.00    0.00
   46    1.59    0.35    0.00    0.00    0.00    0.00   96.87    0.60    0.80    0.03    0.00    0.00    0.00    0.00    0.00     0.00    0.00    0.00    0.00
   47    0.99    0.83    0.00    0.00    0.00    0.00  102.98    0.51    0.70    0.07    0.00    0.00    0.00    0.00    0.01     0.00    0.00    0.00    0.00
   48    4.74    1.45    0.00    0.00    0.00    0.00  110.36    0.48    0.64    0.13    0.00    0.00    0.00    0.00    0.00     0.00    0.00    0.00    0.00
   49    0.03    0.14    0.00    0.00    0.00    0.00  111.74    0.37    0.51    0.09    0.00    0.00    0.00    0.00    0.00     0.00    0.00    0.00    0.00
   50    0.27    0.00    0.00    0.00    0.00    0.00  111.81    0.43    0.62    0.07    0.00    0.00    0.00    0.00    0.00     0.00    0.00    0.00    0.00
   51    0.00    0.04    0.00    0.00    0.00    0.00  111.98    0.49    0.77    0.06    0.00    0.00    0.00    0.00    0.00     0.00    0.00    0.00    0.00
   52    0.00    0.33    0.00    0.00    0.00    0.00  112.85    0.62    0.99    0.07    0.00    0.00    0.00    0.00    0.00     0.00    0.00    0.00    0.00
   53    0.00    1.89    0.00    0.00    0.00    0.00  120.73    0.69    1.10    0.18    0.00    0.00    0.00    0.00    0.01     0.00    0.00    0.00    0.00
   54    0.06    3.88    0.00    0.00    0.00    0.00  131.11    0.81    1.27    0.40    0.00    0.00    0.00    0.00    0.01     0.00    0.00    0.00    0.00
   55    0.07    0.04    0.00    0.00    0.00    0.00  131.13    0.44    0.69    0.24    0.00    0.00    0.00    0.00    0.00     0.00    0.00    0.00    0.00
   56    0.03    0.00    0.00    0.00    0.00    0.00  130.68    0.45    0.71    0.17    0.00    0.00    0.00    0.00    0.00     0.00    0.00    0.00    0.00
   57    0.08    0.00    0.00    0.00    0.00    0.00  130.28    0.41    0.64    0.13    0.00    0.00    0.00    0.00    0.00     0.00    0.00    0.00    0.00
   58    0.00    0.00    0.00    0.00    0.00    0.00  129.81    0.46    0.72    0.11    0.00    0.00    0.00    0.00    0.00     0.00    0.00    0.00    0.00
   59    0.00    0.00    0.00    0.00    0.00    0.00  129.29    0.51    0.80    0.09    0.00    0.00    0.00    0.00    0.00     0.00    0.00    0.00    0.00
   60    0.00    0.00    0.00    0.00    0.00    0.00  128.84    0.44    0.70    0.07    0.00    0.00    0.00    0.00    0.00     0.00    0.00    0.00    0.00
    2   16.92    9.08    0.03    0.00    0.07    0.01  128.84   11.45   17.02    1.92    0.00    0.00    0.00    0.00    0.03     0.01    0.00    0.00    0.00
   61    0.00    0.00    0.00    0.00    0.00    0.00  128.44    0.40    0.63    0.06    0.00    0.00    0.00    0.00    0.00     0.00    0.00    0.00    0.00
   62    0.00    0.00    0.00    0.00    0.00    0.00  128.05    0.38    0.60    0.06    0.00    0.00    0.00    0.00    0.00     0.00    0.00    0.00    0.00
   63    0.00    0.00    0.00    0.00    0.00    0.00  127.62    0.43    0.68    0.05    0.00    0.00    0.00    0.00    0.00     0.00    0.00    0.00    0.00
   64    1.58    0.00    0.00    0.00    0.00    0.00  127.32    0.60    0.81    0.04    0.00    0.00    0.00    0.00    0.00     0.00    0.00    0.00    0.00
   65    8.25    0.00    0.00    0.00    0.00    0.00  127.14    0.56    0.74    0.04    0.00    0.00    0.00    0.00    0.00     0.00    0.00    0.00    0.00
   66    0.00    0.00    0.00    0.00    0.00    0.00  127.12    0.03    0.04    0.03    0.00    0.00    0.00    0.00    0.00     0.00    0.00    0.00    0.00
   67    0.04    0.00    0.00    0.00    0.00    0.00  127.12    0.00    0.00    0.03    0.00    0.00    0.00    0.00    0.00     0.00    0.00    0.00    0.00
   68    0.42    0.00    0.00    0.00    0.00    0.00  127.10    0.06    0.08    0.03    0.00    0.00    0.00    0.00    0.00     0.00    0.00    0.00    0.00
   69    0.00    0.00    0.00    0.00    0.00    0.00  127.08    0.05    0.07    0.02    0.00    0.00    0.00    0.00    0.00     0.00    0.00    0.00    0.00
   70    0.05    0.00    0.00    0.00    0.00    0.00  127.01    0.17    0.23    0.02    0.00    0.00    0.00    0.00    0.00     0.00    0.00    0.00    0.00
   71    0.00    0.00    0.00    0.00    0.00    0.00  126.89    0.19    0.28    0.02    0.00    0.00    0.00    0.00    0.00     0.00    0.00    0.00    0.00
   72    0.26    0.00    0.00    0.00    0.00    0.00  126.88    0.00    0.00    0.02    0.00    0.00    0.00    0.00    0.00     0.00    0.00    0.00    0.00
   73    4.12    0.00    0.00    0.00    0.00    0.00  126.80    0.25    0.33    0.02    0.00    0.00    0.00    0.00    0.00     0.00    0.00    0.00    0.00
   74    0.15    0.00    0.00    0.00    0.00    0.00  126.62    0.58    0.76    0.01    0.00    0.00    0.00    0.00    0.00     0.00    0.00    0.00    0.00
   75    0.41    0.00    0.00    0.00    0.00    0.00  126.27    0.63    0.90    0.01    0.00    0.00    0.00    0.00    0.00     0.00    0.00    0.00    0.00
   76    0.00    0.00    0.00    0.00    0.00    0.00  125.89    0.38    0.61    0.01    0.00    0.00    0.00    0.00    0.00     0.00    0.00    0.00    0.00
   77    0.00    0.00    0.00    0.00    0.00    0.00  125.52    0.38    0.61    0.01    0.00    0.00    0.00    0.00    0.00     0.00    0.00    0.00    0.00
   78    0.00    0.00    0.00    0.00    0.00    0.00  125.06    0.45    0.73    0.01    0.00    0.00    0.00    0.00    0.00     0.00    0.00    0.00    0.00
   79    0.00    0.00    0.00    0.00    0.00    0.00  124.43    0.63    1.02    0.01    0.00    0.00    0.00    0.00    0.00     0.00    0.00    0.00    0.00
   80    0.00    0.00    0.00    0.00    0.00    0.00  123.77    0.65    1.06    0.01    0.00    0.00    0.00    0.00    0.00     0.00    0.00    0.00    0.00
   81    0.02    0.00    0.00    0.00    0.00    0.00  123.04    0.74    1.21    0.01    0.00    0.00    0.00    0.00    0.00     0.00    0.00    0.00    0.00
   82    0.00    0.03    0.00    0.00    0.00    0.00  123.71    0.71    1.14    0.01    0.00    0.00    0.00    0.00    0.00     0.00    0.00    0.00    0.00
   83    0.00    0.28    0.00    0.00    0.00    0.00  124.02    0.90    1.47    0.03    0.00    0.00    0.00    0.00    0.00     0.00    0.00    0.00    0.00
   84    0.00    0.97    0.00    0.00    0.00    0.00  128.40    0.95    1.50    0.09    0.00    0.00    0.00    0.00    0.00     0.00    0.00    0.00    0.00
   85    0.00    2.71    0.00    0.00    0.00    0.00  136.39    1.21    1.80    0.24    0.00    0.00    0.00    0.00    0.02     0.00    0.00    0.00    0.00
   86    0.00    3.07    0.00    0.00    0.00    0.00  142.81    1.22    1.75    0.38    0.00    0.00    0.00    0.00    0.02     0.01    0.00    0.00    0.00
   87    0.00    2.05    0.00    0.00    0.00    0.00  145.42    1.13    1.56    0.36    0.00    0.00    0.00    0.00    0.02     0.01    0.00    0.00    0.00
   88    0.00    0.77    0.00    0.00    0.00    0.00  145.33    1.18    1.48    0.27    0.00    0.00    0.00    0.00    0.00     0.00    0.00    0.00    0.00
   89    0.00    0.01    0.00    0.00    0.00    0.00  144.11    1.37    1.68    0.20    0.00    0.00    0.00    0.00    0.00     0.00    0.00    0.00    0.00
   90    0.00    0.00    0.00    0.00    0.00    0.00  142.96    1.14    1.41    0.16    0.00    0.00    0.00    0.00    0.00     0.00    0.00    0.00    0.00
   91    0.00    0.00    0.00    0.00    0.01    0.00  141.52    1.43    1.80    0.13    0.00    0.00    0.00    0.00    0.00     0.00    0.00    0.00    0.00
    3   15.31    9.89    0.03    0.00    0.05    0.01  141.52   18.79   26.97    2.38    0.00    0.00    0.00    0.00    0.06     0.02    0.00    0.00    0.00
   92    0.00    0.00    0.00    0.00    0.01    0.00  139.93    1.57    2.01    0.11    0.00    0.00    0.00    0.00    0.01     0.00    0.00    0.00    0.00
   93    0.00    0.00    0.01    0.00    0.01    0.00  138.30    1.54    2.12    0.10    0.00    0.00    0.00    0.00    0.01     0.00    0.00    0.00    0.00
   94    0.00    0.00    0.02    0.00    0.02    0.01  136.55    1.59    2.33    0.10    0.00    0.00    0.00    0.00    0.02     0.00    0.00    0.00    0.00
   95    0.00    0.00    0.03    0.00    0.02    0.01  134.93    1.41    2.25    0.11    0.00    0.00    0.00    0.00    0.02     0.00    0.00    0.00    0.00
   96    0.00    0.00    0.03    0.00    0.02    0.01  133.31    1.49    2.53    0.09    0.00    0.00    0.00    0.00    0.02     0.00    0.00    0.00    0.00
   97    0.00    0.00    0.03    0.00    0.02    0.01  131.63    1.52    2.72    0.09    0.00    0.00    0.00    0.00    0.02     0.00    0.00    0.00    0.00
[...]
    731   7   Verndale   .409E+02   52.50  180.40    0.13    0.00    0.00    0.00    0.20  692.07   26.24    9.98  609.72    0.03    0.09    0.24   18.50    5.07    9.63
    732   7   Paddock    .246E+02   46.23  239.40    0.15    0.00    0.00    0.00    0.20  692.07    2.43    1.19  599.65    0.00    0.01    0.00    9.88    9.39    0.89
    733   7   Blowers    .421E+02   46.23  213.00    0.54    0.00    0.00    0.00    0.20  692.07    3.30    2.54  593.87    0.00    0.02    0.02    9.87    9.37    1.21
    734   7   Blowers    .466E+02   46.23  213.00    0.18    0.00    0.00    0.00    0.20  692.07    3.51    0.66  593.98    0.00    0.00    0.01    9.87    9.37    1.29
    735   7   Blowers    .236E+02   46.23  213.00    0.61    0.00    0.00    0.00    0.20  692.07    3.28    2.76  593.86    0.00    0.02    0.02    9.87    9.37    1.20
    736   7   Oylen      .185E+02   61.11  135.30    0.13    0.00    0.00    0.00    0.20  692.07   73.44   10.67  548.30    0.10    0.07    0.93    6.98    0.66   27.37
    737   7   Dorset     .218E+02   61.11  155.60    0.65    0.00    0.00    0.00    0.20  692.07   34.25   40.92  539.46    0.31    0.43    4.22    6.80    0.65   23.88
    738   7   Dorset     .219E+02   61.11  155.60    0.14    0.00    0.00    0.00    0.20  692.07   53.58   28.96  548.76    0.08    0.17    1.16    6.96    0.66   25.39
    739   7   Kandota    .236E+02   61.11  341.90    0.63    0.00    0.00    0.00    0.20  692.07   30.65    8.57  588.16    0.23    0.14    1.53    6.98    0.67   11.25
    740   7   Kandota    .220E+02   61.11  341.90    0.15    0.00    0.00    0.00    0.20  692.07   35.00    2.22  588.54    0.05    0.03    0.40    6.98    0.67   12.84
    741   7   Verndale   .333E+02   61.11  180.40    0.13    0.00    0.00    0.00    0.20  692.07   49.36    8.60  597.71    0.06    0.04    0.61    6.92    0.66   18.12
    742   7   Nymore     .178E+02   61.11  100.80    0.14    0.00    0.00    0.00    0.20  692.07  106.11   23.53  497.57    0.19    0.26    1.82    6.98    0.66   51.25
    743   7   Blowers    .181E+02   64.84  213.00    0.19    0.00  124.62    0.00    0.20  692.07   53.00    0.68  564.64    0.02    0.02    0.24   13.57    9.45   19.45
    744   7   Blowers    .234E+02   64.84  213.00    0.61    0.00  124.80    0.00    0.20  692.07   52.06    2.63  564.54    0.07    0.06    0.83   13.57    9.45   19.11
    745   7   Kandota    .218E+02   69.35  341.90    0.16    0.00   54.51    0.00    0.20  692.07   47.97    1.47  611.45    0.06    0.01    0.48    0.00    0.00   17.60
    746   7   Kandota    .300E+02   69.35  341.90    0.65    0.00   55.29    0.00    0.20  692.07   44.06    5.22  610.95    0.28    0.04    1.82    0.00    0.00   16.17
    747   8   Blowers    .419E+02   61.11  213.00    0.56    0.00    0.00    0.00    0.20  694.03   39.76    3.09  571.16    0.21    0.03    3.57    7.63    0.86   15.03
    748   8   Blowers    .347E+02   61.11  213.00    0.19    0.00    0.00    0.00    0.20  694.03   40.48    0.84  571.39    0.07    0.01    1.27    7.63    0.86   15.30
    749   8   Paddock    .218E+02   61.11  239.40    0.15    0.00    0.00    0.00    0.20  694.03   31.67    1.41  584.81    0.04    0.02    0.40    7.63    0.86   11.97
    750   8   Rockwood   .491E+02   61.11  203.80    0.68    0.00    0.00    0.00    0.20  694.03   52.01    4.62  581.78    0.17    0.04    3.30    7.63    0.86   19.66
    751   8   Waukon     .167E+02   61.11  374.90    0.70    0.00    0.00    0.00    0.20  694.03   34.50   13.25  570.59    0.38    0.10    2.45    7.63    0.86   13.04
    752   8   Gonvick    .185E+02   61.11  339.80    0.15    0.00    0.00    0.00    0.20  694.03   30.13    1.83  607.84    0.03    0.01    0.41    7.63    0.86   11.39
    753   8   Rockwood   .365E+02   76.55  203.80    0.70    0.00   54.58    0.00    0.20  694.03   87.37    1.48  592.85    0.33    0.02    5.11    0.00    0.00   33.02
    754   8   Paddock    .248E+02   70.25  239.40    0.15    0.00   54.59    0.00    0.20  694.03   66.75    1.06  595.66    0.07    0.01    0.72    0.00    0.00   25.23
    755   8   Blowers    .321E+02   76.55  213.00    0.61    0.00   51.68    0.00    0.20  694.03   95.00    1.52  582.41    0.62    0.02    7.99    0.00    0.00   35.90
    756   8   Blowers    .245E+02   76.55  213.00    0.19    0.00   51.35    0.00    0.20  694.03   96.90    0.39  582.34    0.18    0.01    2.87    0.00    0.00   36.62
    757   8   Paddock    .384E+02   62.14  239.40    0.26    0.00    0.00    0.00    0.20  694.03   36.34    2.54  576.32    0.00    0.01    0.05    0.24    0.00   13.73
    758   8   Rockwood   .508E+02   71.15  203.80    0.75    0.00    0.00    0.00    0.20  694.03  100.93    3.76  564.10    0.03    0.02    0.51    0.22    0.00   38.15
    759   8   Rockwood   .211E+02   71.15  203.80    1.32    0.00    0.00    0.00    0.20  694.03   94.41    7.97  564.33    0.08    0.03    1.02    0.22    0.00   35.68
    760   8   Blowers    .543E+02   71.15  213.00    0.45    0.00    0.00    0.00    0.20  694.03   92.61    2.23  554.26    0.03    0.01    0.48    0.22    0.00   35.00
    761   8   Duelm      .178E+02   44.13  112.10    0.19    0.00    0.00    0.00    0.20  694.03    4.49   52.42  547.24    0.00    0.12    0.00    0.24    0.00    1.70
    762   8   Menahga    .191E+02   44.13  118.80    0.47    0.00    0.00    0.00    0.20  694.03    3.01   40.90  577.17    0.00    0.16    0.00    0.23    0.00    1.14
    763   8   Hubbard    .191E+02   44.13  128.10    0.43    0.00    0.00    0.00    0.20  694.03    7.84   79.61  469.04    0.00    0.25    0.00    0.22    0.00   13.75
    764   8   Wykeham    .185E+02   71.15  312.70    0.32    0.00    0.00    0.00    0.20  694.03   59.89    1.52  616.31    0.01    0.01    0.15    0.21    0.00   22.64
    765   8   Kandota    .187E+02   62.14  245.00    0.54    0.00    0.00    0.00    0.20  694.03   40.73    7.61  540.84    0.01    0.02    0.09    0.21    0.00   15.39
    766   8   Waukon     .209E+02   71.15  374.90    0.68    0.00    0.00    0.00    0.20  694.03   80.26   10.79  558.90    0.07    0.02    0.51    0.22    0.00   30.33
    767   8   Nebish     .243E+02   71.15  366.50    0.65    0.00    0.00    0.00    0.20  694.03   69.86    9.79  585.65    0.05    0.04    0.49    0.22    0.00   26.40
    768   8   Dorset     .177E+02   62.14  155.60    0.41    0.00    0.00    0.00    0.20  694.03   32.72   39.06  549.66    0.01    0.05    0.14    0.20    0.00   12.36
    769   8   Arvilla    .176E+02   44.13  112.00    0.45    0.00    0.00    0.00    0.20  694.03    1.36   42.11  575.74    0.00    0.14    0.00    0.23    0.00    0.52
    770   8   Rockwood   .421E+02   46.23  203.80    0.68    0.00    0.00    0.00    0.20  694.03    5.26    4.22  631.49    0.00    0.02    0.02    9.93    9.43    1.99
    771   8   Blowers    .363E+02   46.23  213.00    0.58    0.00    0.00    0.00    0.20  694.03    2.46    2.87  624.85    0.00    0.02    0.01    9.93    9.43    0.93
    772   8   Blowers    .263E+02   46.23  213.00    0.19    0.00    0.00    0.00    0.20  694.03    2.63    0.76  625.02    0.00    0.01    0.00    9.93    9.43    0.99
    773   8   Paddock    .165E+02   46.23  239.40    0.16    0.00    0.00    0.00    0.20  694.03    1.76    1.32  631.55    0.00    0.01    0.00    9.93    9.43    0.66
    774   8   Water      .406E+02   69.35   47.10    0.07    0.00    0.00    0.00    0.20  694.03  123.21    0.11  556.34    0.03    0.01    0.01    6.82    0.00   46.61
    775   8   Rockwood   .277E+02   74.75  203.80    0.68    0.00   63.23    0.00    0.20  694.03   66.84    1.61  611.59    0.26    0.02    3.90    0.00    0.00   25.26
    776   8   Blowers    .189E+02   74.75  213.00    0.19    0.00   67.06    0.00    0.20  694.03   70.00    0.40  607.96    0.13    0.01    2.06    0.00    0.00   26.46
    777   8   Blowers    .242E+02   74.75  213.00    0.58    0.00   67.26    0.00    0.20  694.03   68.13    1.54  607.95    0.46    0.03    5.76    0.00    0.00   25.75
    778   8   Blowers    .523E+02   60.33  213.00    0.19    0.00    0.00    0.00    0.20  694.03   25.55    0.65  611.77    0.03    0.02    0.62   16.74    5.60    9.66
    779   8   Blowers    .597E+02   60.33  213.00    0.56    0.00    0.00    0.00    0.20  694.03   24.96    2.40  611.72    0.11    0.07    1.81   16.71    5.59    9.43
    780   8   Rockwood   .688E+02   60.33  203.80    0.68    0.00    0.00    0.00    0.20  694.03   34.31    3.51  619.64    0.09    0.08    1.68   17.16    5.70   12.97
    781   8   Rockwood   .221E+02   60.33  203.80    0.22    0.00    0.00    0.00    0.20  694.03   35.83    0.98  619.28    0.04    0.02    0.66   17.12    5.68   13.54
    782   8   Paddock    .280E+02   60.33  239.40    0.16    0.00    0.00    0.00    0.20  694.03   23.06    1.12  620.48    0.02    0.03    0.24   19.29    6.38    8.72
    783   8   Water      .568E+00   72.08   47.10    0.07    0.00    0.00    0.00    0.20  694.03    0.00    0.00  815.69    0.00    0.00    0.00    0.00    0.00    0.00
    784   8   Blowers    .996E+02   51.71  213.00    0.54    0.00    0.00    0.00    0.20  694.03    0.29    1.30  665.17    0.00    0.01    0.00   21.64    0.00    0.11
    785   8   Paddock    .559E+02   51.71  239.40    0.34    0.00    0.00    0.00    0.20  694.03    0.06    1.67  665.84    0.00    0.01    0.00   21.72    0.00    0.02
    786   8   Rockwood   .306E+02   51.71  203.80    1.47    0.00    0.00    0.00    0.20  694.03    0.56    4.77  662.52    0.00    0.02    0.00   21.30    0.00    0.21
    787   8   Rockwood   .840E+02   51.71  203.80    0.89    0.00    0.00    0.00    0.20  694.03    0.74    2.20  665.38    0.00    0.01    0.00   21.44    0.00    0.28
    788   8   Rockwood   .177E+02   51.71  203.80    2.66    0.00    0.00    0.00    0.20  694.03    0.46    6.45  660.34    0.00    0.03    0.00   21.16    0.00    0.17
    789   8   Menahga    .397E+02   51.71  118.80    0.73    0.00    0.00    0.00    0.20  694.03    4.16   21.56  640.73    0.00    0.07    0.00   18.86    0.00    1.57
    790   8   Runeberg   .197E+02   51.71  199.10    0.31    0.00    0.00    0.00    0.20  694.03    0.47    0.54  664.47    0.00    0.00    0.00   21.41    0.00    0.18
    791   8   Menahga    .224E+02   51.71  118.80    0.65    0.00    0.00    0.00    0.20  694.03    4.28   20.97  641.54    0.00    0.07    0.00   18.91    0.00    1.62
    792   8   Menahga    .172E+02   51.71  118.80    2.78    0.00    0.00    0.00    0.20  694.03    2.20   31.69  617.99    0.00    0.14    0.00   17.74    0.00    0.83
    793   8   Cushing    .193E+02   51.71  243.50    2.74    0.00    0.00    0.00    0.20  694.03    0.00    3.65  664.17    0.00    0.02    0.00   21.34    0.00    0.00
    794   8   Cushing    .209E+02   51.71  243.50    1.68    0.00    0.00    0.00    0.20  694.03    0.00    2.98  665.21    0.00    0.02    0.00   21.37    0.00    0.00
    795   8   Zimmerma   .205E+02   51.71  126.10    0.28    0.00    0.00    0.00    0.20  694.03    7.88   11.13  645.69    0.00    0.03    0.00   19.60    0.00    2.98
    796   8   Cushing    .175E+02   51.71  243.50    2.60    0.00    0.00    0.00    0.20  694.03    0.00   15.18  646.76    0.00    0.09    0.00   20.49    0.00    0.00
    797   8   Cushing    .196E+02   51.71  243.50    1.19    0.00    0.00    0.00    0.20  694.03    0.00    2.55  665.76    0.00    0.01    0.00   21.40    0.00    0.00
    798   8   Cushing    .477E+02   51.71  246.00    2.27    0.00    0.00    0.00    0.20  694.03    0.00   10.18  652.55    0.00    0.06    0.00   21.08    0.00    0.00
    799   8   Wykeham    .171E+02   51.71  312.70    0.36    0.00    0.00    0.00    0.20  694.03    0.00    1.51  674.04    0.00    0.01    0.00   21.25    0.00    0.00
    800   8   Kandota    .207E+02   51.71  245.00    0.75    0.00    0.00    0.00    0.20  694.03    0.07    3.46  656.94    0.00    0.01    0.00   21.84    0.00    0.03
    801   8   Nebish     .212E+02   51.71  366.50    0.84    0.00    0.00    0.00    0.20  694.03    0.00    3.56  666.47    0.00    0.03    0.00   21.57    0.00    0.00
    802   8   Waukon     .174E+02   51.71  369.60    1.56    0.00    0.00    0.00    0.20  694.03    0.00    3.24  665.69    0.00    0.02    0.00   21.81    0.00    0.00
    803   8   Waukon     .287E+02   51.71  374.90    0.80    0.00    0.00    0.00    0.20  694.03    0.00    2.52  665.01    0.00    0.02    0.00   22.14    0.00    0.00
    804   8   Nebish     .236E+02   51.71  366.50    1.44    0.00    0.00    0.00    0.20  694.03    0.00    5.05  664.26    0.00    0.04    0.00   21.44    0.00    0.00
    805   8   Water      .719E+02   71.15   47.10    0.07    0.00    0.00    0.00    0.20  694.03  141.26    0.11  533.21    0.00    0.01    0.00    0.44    0.00   57.42
    806   8   Water      .186E+03   69.35   47.10    0.07    0.00    0.00    0.00    0.20  694.03  123.21    0.11  556.34    0.02    0.01    0.01    6.82    0.00   50.57
    807   8   Water      .204E+03   71.15   47.10    0.07    0.00    0.00    0.00    0.20  694.03  141.25    0.11  533.21    0.00    0.02    0.00    0.44    0.00   61.38



                AVE MONTHLY BASIN VALUES
                   SNOW                      WATER               SED
  MON     RAIN     FALL   SURF Q    LAT Q    YIELD       ET    YIELD      PET
          (MM)     (MM)     (MM)     (MM)     (MM)     (MM)   (T/HA)     (MM)
    1    13.75    11.66     0.01     0.03     0.05     3.76     0.00     5.37
    2     9.81     5.10     3.20     0.03     0.69     8.39     0.00    13.05
    3    35.30    20.90    15.30     0.20     4.08    23.34     0.00    32.50
    4    47.63     1.04     4.22     0.91     3.87    45.82     0.00    77.29
    5    84.12     0.00     9.67     1.05     5.03    69.05     0.00   122.58
    6   139.11     0.00    14.86     1.43     9.56    97.41     0.00   138.96
    7    93.24     0.00    11.82     1.33     8.80   126.11     0.00   163.46
    8    74.66     0.00     2.59     0.62     2.72   102.50     0.00   136.57
    9    70.14     0.00     0.89     0.41     1.93    59.62     0.00    78.14
   10    85.62     0.11     5.89     0.76     3.23    38.47     0.00    43.77
   11    38.70    25.32     0.90     0.36     0.75    12.89     0.00    14.42
   12    23.32    22.71     0.03     0.11     0.22     2.89     0.00     3.39

     AVE ANNUAL BASIN STRESS DAYS
               WATER STRESS DAYS =    10.56
               TEMPERATURE STRESS DAYS =   203.51
               NITROGEN STRESS DAYS =    16.99
               PHOSPHORUS STRESS DAYS =     0.06
               AERATION STRESS DAYS =     0.00
1
    SWAT Sep 7    VER 2018/Rev 670                                                  

    General Input/Output section (file.cio):                                        
    11/30/2022 2:01:14 PM HAWQS Interface                                           
                                                                                    
         AVE ANNUAL BASIN VALUES

              PRECIP =    715.5 MM
              SNOW FALL =   86.90 MM
              SNOW MELT =    67.98 MM
              SUBLIMATION =     4.03 MM
              SURFACE RUNOFF Q =    69.41 MM
              LATERAL SOIL Q =    7.24 MM
              TILE Q =     8.69 MM
              GROUNDWATER (SHAL AQ) Q =     0.00 MM
              GROUNDWATER (DEEP AQ) Q =     0.00 MM
              REVAP (SHAL AQ => SOIL/PLANTS) =   82.54 MM
              DEEP AQ RECHARGE =     0.39 MM
              TOTAL AQ RECHARGE =    7.46 MM
              TOTAL WATER YLD =    40.94 MM
              PERCOLATION OUT OF SOIL =    7.48 MM
              ET =    590.3 MM
              PET =    829.7MM
              TRANSMISSION LOSSES =     0.00 MM
              SEPTIC INFLOW =       0.00 MM
              TOTAL SEDIMENT LOADING =      0.02 T/HA
              TILE FROM IMPOUNDED WATER =     0.000 (MM)
              EVAPORATION FROM IMPOUNDED WATER =     0.000 (MM)
              SEEPAGE INTO SOIL FROM IMPOUNDED WATER =    0.000 (MM)
              OVERFLOW FROM IMPOUNDED WATER =    0.000 (MM)
1
    SWAT Sep 7    VER 2018/Rev 670                                                  

    General Input/Output section (file.cio):                                        
    11/30/2022 2:01:14 PM HAWQS Interface                                           
                                                                                    
              AVE ANNUAL BASIN VALUES


              NUTRIENTS
                   ORGANIC N =     0.143 (KG/HA)
                   ORGANIC P =     0.021 (KG/HA)
                   NO3 YIELD (SQ) =     0.004 (KG/HA)
                   NO3 YIELD (LAT) =    0.034 (KG/HA)
                   NO3 YIELD (TILE) =    0.200 (KG/HA)
                   SOLP YIELD (TILE) =    0.004(KG/HA)
                   SOLP YIELD (SURF INLET RISER) =    0.000 (KG/HA)
                   SOL P YIELD =    0.006 (KG/HA)
                   NO3 LEACHED =     0.132 (KG/HA)
                   P LEACHED =     0.003 (KG/HA)
                   N UPTAKE =    25.949 (KG/HA)
                   P UPTAKE =    5.349 (KG/HA)
                   NO3 YIELD (GWQ) =     0.000 (KG/HA)
                   ACTIVE TO SOLUTION P FLOW =        -1.852 (KG/HA)
                   ACTIVE TO STABLE P FLOW =        -1.722 (KG/HA)
                   N FERTILIZER APPLIED =     4.882 (KG/HA)
                   P FERTILIZER APPLIED =     0.584 (KG/HA)
                   N FIXATION =     3.354 (KG/HA)
                   DENITRIFICATION =     7.377 (KG/HA)
                   HUMUS MIN ON ACTIVE ORG N =     2.787 (KG/HA)
                   ACTIVE TO STABLE ORG N =    -0.224 (KG/HA)
                   HUMUS MIN ON ACTIVE ORG P =    0.479 (KG/HA)
                   MIN FROM FRESH ORG N =   15.748 (KG/HA)
                   MIN FROM FRESH ORG P =    3.264 (KG/HA)
                   NO3 IN RAINFALL =     6.986 (KG/HA)
                   INITIAL NO3 IN SOIL =      60.660 (KG/HA)
                   FINAL NO3 IN SOIL =         3.197 (KG/HA)
                   INITIAL ORG N IN SOIL =    5784.029 (KG/HA)
                   FINAL ORG N IN SOIL =      5806.631 (KG/HA)
                   INITIAL MIN P IN SOIL =    3024.480 (KG/HA)
                   FINAL MIN P IN SOIL =      3007.862 (KG/HA)
                   INITIAL ORG P IN SOIL =     708.544 (KG/HA)
                   FINAL ORG P IN SOIL =     713.643 (KG/HA)
                   NO3 IN FERT =     4.882 (KG/HA)
                   AMMONIA IN FERT =     0.000 (KG/HA)
                   ORG N IN FERT =     0.000 (KG/HA)
                   MINERAL P IN FERT =     0.584 (KG/HA)
                   ORG P IN FERT =     0.000 (KG/HA)
                   N REMOVED IN YIELD =     6.600 (KG/HA)
                   P REMOVED IN YIELD =     1.160 (KG/HA)
                   AMMONIA VOLATILIZATION =     0.645 (KG/HA)
                   AMMONIA NITRIFICATION =      1.799 (KG/HA)
                   NO3 EVAP-LAYER 2 TO 1 =    7.839

                   DIE-GRO P Q =           0.0 (No/M2)
                   DIE-GRO LP Q =           0.0 (No/M2)
                   DIE-GRO P SED =          0.0 (No/M2)
                   DIE-GRO LP SED =          0.0 (No/M2)
                   BACT P RUNOFF =          0.0 (No/M2)
                   BACT LP RUNOFF =          0.0 (No/M2)
                   BACT P SEDIMENT =          0.0 (No/M2)
                   BACT LP SEDIMENT =          0.0 (No/M2)
                   BACT P INCORP =          0.0 (No/M2)
                   BACT LP INCORP =          0.0 (No/M2)

                   NITRATE SEPTIC =         0.00 (kg/ha)
                   AMMONIA SEPTIC =         0.00 (kg/ha)
                   ORG N SEPTIC =         0.00 (kg/ha)
                   FRESH ORGN SEPTIC =         0.00 (kg/ha)
                   ORG P SEPTIC =         0.00 (kg/ha)
                   FRESH ORGP SEPTIC =         0.00 (kg/ha)
                   SOL P SEPTIC =         0.00 (kg/ha)
                   BOD SEPTIC =         0.00 (kg/ha)
