1
    SWAT Sep 7    VER 2018/Rev 670                                                                       0/ 0/   0      0: 0: 0

    General Input/Output section (file.cio):                                        
    11/30/2022 2:01:14 PM HAWQS Interface                                           
                                                                                    


LULC  HRU       GIS  SUB  MGT MO DA   YR   AREAkm2  PRECIPmm SNOFALLmm SNOMELTmm     IRRmm     PETmm      ETmm SW_INITmm  SW_ENDmm    PERCmm GW_RCHGmm DA_RCHGmm   REVAPmm  SA_IRRmm  DA_IRRmm   SA_STmm   DA_STmmSURQ_GENmmSURQ_CNTmm   TLOSSmm LATQGENmm
FRSD    1 000010001    1    0  1  1 1983 .45702E+02     0.100     0.000     0.000     0.000     0.243     0.243   236.506   236.506     0.000     0.000     0.000     0.043     0.000     0.000   717.619  1000.000     0.000     0.000     0.000     0.000
FRSD    1 000010001    1    0  1  2 1983 .45702E+02     0.000     0.000     0.000     0.000     0.168     0.137   236.506   236.414     0.000     0.000     0.000     0.029     0.000     0.000   717.590  1000.000     0.000     0.000     0.000     0.000
FRSD    1 000010001    1    0  1  3 1983 .45702E+02     0.000     0.000     0.000     0.000     0.126     0.094   236.414   236.320     0.000     0.000     0.000     0.022     0.000     0.000   717.568  1000.000     0.000     0.000     0.000     0.000
FRSD    1 000010001    1    0  1  4 1983 .45702E+02     1.000     0.000     0.000     0.000     0.262     0.262   236.320   236.320     0.000     0.000     0.000     0.046     0.000     0.000   717.522  1000.000     0.000     0.000     0.000     0.000
FRSD    1 000010001    1    0  1  5 1983 .45702E+02     0.000     0.000     0.000     0.000     0.314     0.314   236.320   236.320     0.000     0.000     0.000     0.055     0.000     0.000   717.467  1000.000     0.000     0.000     0.000     0.000
FRSD    1 000010001    1    0  1  6 1983 .45702E+02     5.200     4.487     0.000     0.000     0.304     0.304   236.320   236.320     0.000     0.000     0.000     0.053     0.000     0.000   717.414  1000.000     0.000     0.000     0.000     0.000
FRSD    1 000010001    1    0  1  7 1983 .45702E+02     5.300     4.996     0.000     0.000     0.281     0.281   236.320   236.320     0.000     0.000     0.000     0.049     0.000     0.000   717.365  1000.000     0.000     0.000     0.000     0.000
FRSD    1 000010001    1    0  1  8 1983 .45702E+02     0.000     0.000     0.000     0.000     0.184     0.184   236.320   236.320     0.000     0.000     0.000     0.032     0.000     0.000   717.333  1000.000     0.000     0.000     0.000     0.000
FRSD    1 000010001    1    0  1  9 1983 .45702E+02     0.000     0.000     0.000     0.000     0.336     0.336   236.320   236.320     0.000     0.000     0.000     0.059     0.000     0.000   717.274  1000.000     0.000     0.000     0.000     0.000
FRSD    1 000010001    1    0  1 10 1983 .45702E+02     3.900     3.099     0.000     0.000     0.314     0.314   236.320   236.320     0.000     0.000     0.000     0.055     0.000     0.000   717.219  1000.000     0.000     0.000     0.000     0.000
FRSD    1 000010001    1    0  1 11 1983 .45702E+02     0.600     0.286     0.000     0.000     0.295     0.295   236.320   236.320     0.000     0.000     0.000     0.052     0.000     0.000   717.167  1000.000     0.000     0.000     0.000     0.000
FRSD    1 000010001    1    0  1 12 1983 .45702E+02     0.000     0.000     0.000     0.000     0.022     0.022   236.320   236.320     0.000     0.000     0.000     0.004     0.000     0.000   717.163  1000.000     0.000     0.000     0.000     0.000
FRSD    1 000010001    1    0  1 13 1983 .45702E+02     0.000     0.000     0.000     0.000     0.228     0.228   236.320   236.320     0.000     0.000     0.000     0.040     0.000     0.000   717.123  1000.000     0.000     0.000     0.000     0.000
FRSD    1 000010001    1    0  1 14 1983 .45702E+02     0.800     0.255     0.000     0.000     0.255     0.255   236.320   236.320     0.000     0.000     0.000     0.044     0.000     0.000   717.079  1000.000     0.000     0.000     0.000     0.000
FRSD    1 000010001    1    0  1 15 1983 .45702E+02     0.000     0.000     0.000     0.000     0.101     0.101   236.320   236.320     0.000     0.000     0.000     0.018     0.000     0.000   717.061  1000.000     0.000     0.000     0.000     0.000
FRSD    1 000010001    1    0  1 16 1983 .45702E+02     0.000     0.000     0.000     0.000     0.055     0.055   236.320   236.320     0.000     0.000     0.000     0.010     0.000     0.000   717.051  1000.000     0.000     0.000     0.000     0.000
FRSD    1 000010001    1    0  1 17 1983 .45702E+02     0.000     0.000     0.000     0.000     0.061     0.061   236.320   236.320     0.000     0.000     0.000     0.011     0.000     0.000   717.041  1000.000     0.000     0.000     0.000     0.000
FRSD    1 000010001    1    0  1 18 1983 .45702E+02     0.000     0.000     0.000     0.000     0.000     0.000   236.320   236.320     0.000     0.000     0.000     0.000     0.000     0.000   717.041  1000.000     0.000     0.000     0.000     0.000
FRSD    1 000010001    1    0  1 19 1983 .45702E+02     0.000     0.000     0.000     0.000     0.000     0.000   236.320   236.320     0.000     0.000     0.000     0.000     0.000     0.000   717.041  1000.000     0.000     0.000     0.000     0.000
FRSD    1 000010001    1    0  1 20 1983 .45702E+02     0.000     0.000     0.000     0.000     0.196     0.196   236.320   236.320     0.000     0.000     0.000     0.034     0.000     0.000   717.006  1000.000     0.000     0.000     0.000     0.000
FRSD    1 000010001    1    0  1 21 1983 .45702E+02     0.000     0.000     0.000     0.000     0.256     0.256   236.320   236.320     0.000     0.000     0.000     0.045     0.000     0.000   716.962  1000.000     0.000     0.000     0.000     0.000
FRSD    1 000010001    1    0  1 22 1983 .45702E+02     0.000     0.000     0.000     0.000     0.360     0.323   236.320   236.210     0.000     0.000     0.000     0.063     0.000     0.000   716.899  1000.000     0.000     0.000     0.000     0.000
FRSD    1 000010001    1    0  1 23 1983 .45702E+02     0.000     0.000     0.000     0.000     0.421     0.316   236.210   235.894     0.000     0.000     0.000     0.074     0.000     0.000   716.825  1000.000     0.000     0.000     0.000     0.000
FRSD    1 000010001    1    0  1 24 1983 .45702E+02     0.000     0.000     0.000     0.000     0.362     0.272   235.894   235.623     0.000     0.000     0.000     0.063     0.000     0.000   716.762  1000.000     0.000     0.000     0.000     0.000
FRSD    1 000010001    1    0  1 25 1983 .45702E+02     0.000     0.000     0.000     0.000     0.006     0.003   235.623   235.620     0.000     0.000     0.000     0.001     0.000     0.000   716.760  1000.000     0.000     0.000     0.000     0.000
FRSD    1 000010001    1    0  1 26 1983 .45702E+02     0.000     0.000     0.000     0.000     0.000     0.000   235.620   235.620     0.000     0.000     0.000     0.000     0.000     0.000   716.760  1000.000     0.000     0.000     0.000     0.000
FRSD    1 000010001    1    0  1 27 1983 .45702E+02     0.000     0.000     0.000     0.000     0.000     0.000   235.620   235.620     0.000     0.000     0.000     0.000     0.000     0.000   716.760  1000.000     0.000     0.000     0.000     0.000
FRSD    1 000010001    1    0  1 28 1983 .45702E+02     0.000     0.000     0.000     0.000     0.269     0.202   235.620   235.418     0.000     0.000     0.000     0.047     0.000     0.000   716.713  1000.000     0.000     0.000     0.000     0.000
FRSD    1 000010001    1    0  1 29 1983 .45702E+02     3.400     2.263     0.000     0.000     0.409     0.409   235.418   235.418     0.000     0.000     0.000     0.071     0.000     0.000   716.642  1000.000     0.000     0.000     0.000     0.000
FRSD    1 000010001    1    0  1 30 1983 .45702E+02     0.900     0.491     0.000     0.000     0.271     0.271   235.418   235.418     0.000     0.000     0.000     0.047     0.000     0.000   716.594  1000.000     0.000     0.000     0.000     0.000
FRSD    1 000010001    1    0  1 31 1983 .45702E+02     0.000     0.000     0.000     0.000     0.063     0.063   235.418   235.418     0.000     0.000     0.000     0.011     0.000     0.000   716.583  1000.000     0.000     0.000     0.000     0.000
FRSD    1 000010001    1    0  2  1 1983 .45702E+02     0.000     0.000     0.000     0.000     0.103     0.103   235.418   235.418     0.000     0.000     0.000     0.018     0.000     0.000   716.565  1000.000     0.000     0.000     0.000     0.000
FRSD    1 000010001    1    0  2  2 1983 .45702E+02     0.000     0.000     0.000     0.000     0.226     0.226   235.418   235.418     0.000     0.000     0.000     0.040     0.000     0.000   716.526  1000.000     0.000     0.000     0.000     0.000
FRSD    1 000010001    1    0  2  3 1983 .45702E+02     0.000     0.000     0.000     0.000     0.110     0.110   235.418   235.418     0.000     0.000     0.000     0.019     0.000     0.000   716.506  1000.000     0.000     0.000     0.000     0.000
FRSD    1 000010001    1    0  2  4 1983 .45702E+02     0.000     0.000     0.000     0.000     0.000     0.000   235.418   235.418     0.000     0.000     0.000     0.000     0.000     0.000   716.506  1000.000     0.000     0.000     0.000     0.000
FRSD    1 000010001    1    0  2  5 1983 .45702E+02     0.000     0.000     0.000     0.000     0.000     0.000   235.418   235.418     0.000     0.000     0.000     0.000     0.000     0.000   716.506  1000.000     0.000     0.000     0.000     0.000
FRSD    1 000010001    1    0  2  6 1983 .45702E+02     0.000     0.000     0.000     0.000     0.000     0.000   235.418   235.418     0.000     0.000     0.000     0.000     0.000     0.000   716.506  1000.000     0.000     0.000     0.000     0.000
FRSD    1 000010001    1    0  2  7 1983 .45702E+02     0.000     0.000     0.000     0.000     0.000     0.000   235.418   235.418     0.000     0.000     0.000     0.000     0.000     0.000   716.506  1000.000     0.000     0.000     0.000     0.000
FRSD    1 000010001    1    0  2  8 1983 .45702E+02     0.000     0.000     0.000     0.000     0.172     0.172   235.418   235.418     0.000     0.000     0.000     0.030     0.000     0.000   716.476  1000.000     0.000     0.000     0.000     0.000
FRSD    1 000010001    1    0  2  9 1983 .45702E+02     0.000     0.000     0.000     0.000     0.297     0.271   235.418   235.339     0.000     0.000     0.000     0.052     0.000     0.000   716.424  1000.000     0.000     0.000     0.000     0.000
FRSD    1 000010001    1    0  2 10 1983 .45702E+02     0.200     0.000     0.000     0.000     0.371     0.328   235.339   235.210     0.000     0.000     0.000     0.065     0.000     0.000   716.359  1000.000     0.000     0.000     0.000     0.000
FRSD    1 000010001    1    0  2 11 1983 .45702E+02     0.900     0.000     0.000     0.000     0.404     0.404   235.210   235.210     0.000     0.000     0.000     0.071     0.000     0.000   716.288  1000.000     0.000     0.000     0.000     0.000
FRSD    1 000010001    1    0  2 12 1983 .45702E+02     0.000     0.000     0.000     0.000     0.501     0.499   235.210   235.208     0.000     0.000     0.000     0.088     0.000     0.000   716.201  1000.000     0.000     0.000     0.000     0.000
FRSD    1 000010001    1    0  2 13 1983 .45702E+02     0.000     0.000     0.000     0.000     0.596     0.447   235.208   234.760     0.000     0.000     0.000     0.104     0.000     0.000   716.096  1000.000     0.000     0.000     0.000     0.000
FRSD    1 000010001    1    0  2 14 1983 .45702E+02     0.000     0.000     1.768     0.000     0.826     0.620   234.760   236.321     0.000     0.000     0.000     0.144     0.000     0.000   715.952  1000.000     0.000     0.000     0.000     0.000
FRSD    1 000010001    1    0  2 15 1983 .45702E+02     0.000     0.000     0.000     0.000     0.527     0.395   236.321   235.926     0.000     0.000     0.000     0.092     0.000     0.000   715.860  1000.000     0.000     0.000     0.000     0.000
FRSD    1 000010001    1    0  2 16 1983 .45702E+02     0.000     0.000     0.000     0.000     0.508     0.381   235.926   235.545     0.000     0.000     0.000     0.089     0.000     0.000   715.771  1000.000     0.000     0.000     0.000     0.000
FRSD    1 000010001    1    0  2 17 1983 .45702E+02     0.000     0.000     0.000     0.000     0.677     0.508   235.545   235.037     0.000     0.000     0.000     0.118     0.000     0.000   715.652  1000.000     0.000     0.000     0.000     0.000
FRSD    1 000010001    1    0  2 18 1983 .45702E+02     2.000     0.863     0.000     0.000     0.561     0.561   235.037   235.037     0.000     0.000     0.000     0.098     0.000     0.000   715.554  1000.000     0.000     0.000     0.000     0.000
FRSD    1 000010001    1    0  2 19 1983 .45702E+02     0.000     0.000     0.000     0.000     0.668     0.645   235.037   234.969     0.000     0.000     0.000     0.117     0.000     0.000   715.437  1000.000     0.000     0.000     0.000     0.000
FRSD    1 000010001    1    0  2 20 1983 .45702E+02     6.400     5.263     0.000     0.000     0.714     0.714   234.969   234.969     0.000     0.000     0.000     0.125     0.000     0.000   715.313  1000.000     0.000     0.000     0.000     0.000
FRSD    1 000010001    1    0  2 21 1983 .45702E+02     0.100     0.000     0.000     0.000     0.503     0.503   234.969   234.969     0.000     0.000     0.000     0.088     0.000     0.000   715.225  1000.000     0.000     0.000     0.000     0.000
FRSD    1 000010001    1    0  2 22 1983 .45702E+02     0.000     0.000     0.000     0.000     0.749     0.567   234.969   234.422     0.000     0.000     0.000     0.131     0.000     0.000   715.094  1000.000     0.000     0.000     0.000     0.000
FRSD    1 000010001    1    0  2 23 1983 .45702E+02     0.000     0.000     0.000     0.000     0.910     0.683   234.422   233.739     0.000     0.000     0.000     0.159     0.000     0.000   714.934  1000.000     0.000     0.000     0.000     0.000
FRSD    1 000010001    1    0  2 24 1983 .45702E+02     0.000     0.000     0.000     0.000     0.798     0.598   233.739   233.141     0.000     0.000     0.000     0.139     0.000     0.000   714.795  1000.000     0.000     0.000     0.000     0.000
FRSD    1 000010001    1    0  2 25 1983 .45702E+02     0.000     0.000     0.000     0.000     0.507     0.380   233.141   232.761     0.000     0.000     0.000     0.089     0.000     0.000   714.706  1000.000     0.000     0.000     0.000     0.000
FRSD    1 000010001    1    0  2 26 1983 .45702E+02     0.000     0.000     0.000     0.000     0.741     0.556   232.761   232.205     0.000     0.000     0.000     0.130     0.000     0.000   714.577  1000.000     0.000     0.000     0.000     0.000
FRSD    1 000010001    1    0  2 27 1983 .45702E+02     1.300     0.163     0.000     0.000     0.827     0.827   232.205   232.205     0.000     0.000     0.000     0.145     0.000     0.000   714.432  1000.000     0.000     0.000     0.000     0.000
FRSD    1 000010001    1    0  2 28 1983 .45702E+02     0.700     0.000     0.987     0.000     0.767     0.767   232.205   233.192     0.000     0.000     0.000     0.134     0.000     0.000   714.298  1000.000     0.000     0.000     0.000     0.000
FRSD    1 000010001    1    0  3  1 1983 .45702E+02     0.100     0.000     0.000     0.000     0.655     0.577   233.192   232.958     0.000     0.000     0.000     0.115     0.000     0.000   714.183  1000.000     0.000     0.000     0.000     0.000
FRSD    1 000010001    1    0  3  2 1983 .45702E+02     0.000     0.000     0.000     0.000     0.670     0.502   232.958   232.455     0.000     0.000     0.000     0.117     0.000     0.000   714.066  1000.000     0.000     0.000     0.000     0.000
FRSD    1 000010001    1    0  3  3 1983 .45702E+02     0.000     0.000     4.654     0.000     0.862     0.647   232.455   236.894     0.000     0.000     0.000     0.151     0.000     0.000   713.915  1000.000     0.000     0.000     0.000     0.000
FRSD    1 000010001    1    0  3  4 1983 .45702E+02     0.000     0.000     6.495     0.000     0.882     0.662   236.894   243.168     0.000     0.000     0.000     0.154     0.000     0.000   713.761  1000.000     0.000     0.000     0.000     0.000
FRSD    1 000010001    1    0  3  5 1983 .45702E+02     2.400     0.000     5.700     0.000     0.764     0.764   243.168   250.132     0.000     0.000     0.000     0.134     0.000     0.000   713.628  1000.000     0.000     0.000     0.000     0.000
FRSD    1 000010001    1    0  3  6 1983 .45702E+02     4.600     0.000     3.220     0.000     0.875     0.875   250.132   257.187     0.000     0.000     0.000     0.153     0.000     0.000   713.475  1000.000     0.000     0.000     0.000     0.000
FRSD    1 000010001    1    0  3  7 1983 .45702E+02     9.800     0.000     0.000     0.000     0.858     0.858   257.187   266.113     0.000     0.000     0.000     0.150     0.000     0.000   713.325  1000.000     0.000     0.000     0.000     0.000
FRSD    1 000010001    1    0  3  8 1983 .45702E+02     7.400     6.542     0.000     0.000     0.986     0.986   266.113   266.113     0.000     0.000     0.000     0.172     0.000     0.000   713.152  1000.000     0.000     0.000     0.000     0.000
FRSD    1 000010001    1    0  3  9 1983 .45702E+02     2.900     1.914     0.000     0.000     0.301     0.301   266.113   266.113     0.000     0.000     0.000     0.053     0.000     0.000   713.099  1000.000     0.000     0.000     0.000     0.000
FRSD    1 000010001    1    0  3 10 1983 .45702E+02     0.000     0.000     0.000     0.000     0.516     0.516   266.113   266.113     0.000     0.000     0.000     0.090     0.000     0.000   713.009  1000.000     0.000     0.000     0.000     0.000
FRSD    1 000010001    1    0  3 11 1983 .45702E+02     0.000     0.000     0.000     0.000     0.824     0.698   266.113   265.734     0.000     0.000     0.000     0.144     0.000     0.000   712.865  1000.000     0.000     0.000     0.000     0.000
FRSD    1 000010001    1    0  3 12 1983 .45702E+02     0.000     0.000     0.000     0.000     1.168     0.876   265.734   264.858     0.000     0.000     0.000     0.204     0.000     0.000   712.661  1000.000     0.000     0.000     0.000     0.000
FRSD    1 000010001    1    0  3 13 1983 .45702E+02     0.000     0.000     8.456     0.000     1.521     1.216   264.858   272.098     0.000     0.000     0.000     0.266     0.000     0.000   712.395  1000.000     0.000     0.000     0.000     0.000
FRSD    1 000010001    1    0  3 14 1983 .45702E+02     0.000     0.000     0.000     0.000     1.086     0.869   272.098   271.229     0.000     0.000     0.000     0.190     0.000     0.000   712.205  1000.000     0.000     0.000     0.000     0.000
FRSD    1 000010001    1    0  3 15 1983 .45702E+02     0.000     0.000     0.000     0.000     0.997     0.797   271.229   270.432     0.000     0.000     0.000     0.174     0.000     0.000   712.031  1000.000     0.000     0.000     0.000     0.000
FRSD    1 000010001    1    0  3 16 1983 .45702E+02     0.000     0.000     0.000     0.000     0.765     0.612   270.432   269.820     0.000     0.000     0.000     0.134     0.000     0.000   711.897  1000.000     0.000     0.000     0.000     0.000
FRSD    1 000010001    1    0  3 17 1983 .45702E+02     0.200     0.000     0.000     0.000     0.870     0.736   269.820   269.284     0.000     0.000     0.000     0.152     0.000     0.000   711.745  1000.000     0.000     0.000     0.000     0.000
FRSD    1 000010001    1    0  3 18 1983 .45702E+02     1.200     0.063     0.000     0.000     0.775     0.775   269.284   269.284     0.000     0.000     0.000     0.136     0.000     0.000   711.609  1000.000     0.000     0.000     0.000     0.000
FRSD    1 000010001    1    0  3 19 1983 .45702E+02     0.000     0.000     0.000     0.000     0.920     0.808   269.284   268.838     0.000     0.000     0.000     0.161     0.000     0.000   711.449  1000.000     0.000     0.000     0.000     0.000
FRSD    1 000010001    1    0  3 20 1983 .45702E+02     0.000     0.000     0.000     0.000     1.017     0.814   268.838   268.024     0.000     0.000     0.000     0.178     0.000     0.000   711.271  1000.000     0.000     0.000     0.000     0.000
FRSD    1 000010001    1    0  3 21 1983 .45702E+02     0.000     0.000     0.000     0.000     0.825     0.660   268.024   267.365     0.000     0.000     0.000     0.144     0.000     0.000   711.127  1000.000     0.000     0.000     0.000     0.000
FRSD    1 000010001    1    0  3 22 1983 .45702E+02     0.000     0.000     0.000     0.000     0.687     0.549   267.365   266.815     0.000     0.000     0.000     0.120     0.000     0.000   711.006  1000.000     0.000     0.000     0.000     0.000
FRSD    1 000010001    1    0  3 23 1983 .45702E+02     0.000     0.000     0.000     0.000     0.724     0.579   266.815   266.236     0.000     0.000     0.000     0.126     0.000     0.000   710.880  1000.000     0.000     0.000     0.000     0.000
FRSD    1 000010001    1    0  3 24 1983 .45702E+02     0.000     0.000     0.000     0.000     1.017     0.813   266.236   265.423     0.000     0.000     0.000     0.178     0.000     0.000   710.702  1000.000     0.000     0.000     0.000     0.000
FRSD    1 000010001    1    0  3 25 1983 .45702E+02     0.000     0.000     0.000     0.000     1.265     1.012   265.423   264.411     0.000     0.000     0.000     0.221     0.000     0.000   710.481  1000.000     0.000     0.000     0.000     0.000
FRSD    1 000010001    1    0  3 26 1983 .45702E+02     0.000     0.000     0.014     0.000     1.350     1.080   264.411   263.394     0.000     0.000     0.000     0.236     0.000     0.000   710.245  1000.000     0.000     0.000     0.000     0.000
FRSD    1 000010001    1    0  3 27 1983 .45702E+02     0.000     0.000     0.000     0.000     1.402     1.121   263.394   262.273     0.000     0.000     0.000     0.245     0.000     0.000   710.000  1000.000     0.000     0.000     0.000     0.000
FRSD    1 000010001    1    0  3 28 1983 .45702E+02     0.000     0.000     0.000     0.000     1.362     1.089   262.273   261.183     0.000     0.000     0.000     0.238     0.000     0.000   709.762  1000.000     0.000     0.000     0.000     0.000
FRSD    1 000010001    1    0  3 29 1983 .45702E+02     0.000     0.000     0.000     0.000     1.661     1.328   261.183   259.855     0.000     0.000     0.000     0.290     0.000     0.000   709.471  1000.000     0.000     0.000     0.000     0.000
FRSD    1 000010001    1    0  3 30 1983 .45702E+02     2.200     0.000     0.000     0.000     1.239     1.219   259.855   260.836     0.000     0.000     0.000     0.217     0.000     0.000   709.255  1000.000     0.000     0.000     0.000     0.000
FRSD    1 000010001    1    0  3 31 1983 .45702E+02     4.900     0.000     0.000     0.000     1.370     1.324   260.836   264.412     0.000     0.000     0.000     0.240     0.000     0.000   709.015  1000.000     0.000     0.000     0.000     0.000
FRSD    1 000010001    1    0  4  1 1983 .45702E+02     3.500     0.000     0.000     0.000     0.954     0.954   264.412   266.775     0.000     0.000     0.000     0.167     0.000     0.000   708.848  1000.000     0.000     0.000     0.000     0.000
FRSD    1 000010001    1    0  4  2 1983 .45702E+02     2.300     0.000     0.000     0.000     1.117     1.117   266.775   268.122     0.000     0.000     0.000     0.195     0.000     0.000   708.653  1000.000     0.000     0.000     0.000     0.000
FRSD    1 000010001    1    0  4  3 1983 .45702E+02     0.100     0.000     0.000     0.000     1.463     1.194   268.122   267.048     0.000     0.000     0.000     0.256     0.000     0.000   708.397  1000.000     0.000     0.000     0.000     0.000
FRSD    1 000010001    1    0  4  4 1983 .45702E+02     0.000     0.000     0.000     0.000     1.448     1.158   267.048   265.886     0.000     0.000     0.000     0.253     0.000     0.000   708.144  1000.000     0.000     0.000     0.000     0.000
FRSD    1 000010001    1    0  4  5 1983 .45702E+02     0.000     0.000     0.000     0.000     1.830     1.464   265.886   264.423     0.000     0.000     0.000     0.320     0.000     0.000   707.824  1000.000     0.000     0.000     0.000     0.000
FRSD    1 000010001    1    0  4  6 1983 .45702E+02     0.200     0.000     0.000     0.000     1.928     1.582   264.423   263.040     0.000     0.000     0.000     0.337     0.000     0.000   707.487  1000.000     0.000     0.000     0.000     0.000
FRSD    1 000010001    1    0  4  7 1983 .45702E+02     1.000     0.000     0.000     0.000     1.391     1.313   263.040   262.728     0.000     0.000     0.000     0.243     0.000     0.000   707.244  1000.000     0.000     0.000     0.000     0.000
FRSD    1 000010001    1    0  4  8 1983 .45702E+02     0.000     0.000     0.000     0.000     2.023     1.618   262.728   261.109     0.000     0.000     0.000     0.354     0.000     0.000   706.890  1000.000     0.000     0.000     0.000     0.000
FRSD    1 000010001    1    0  4  9 1983 .45702E+02     0.000     0.000     0.000     0.000     2.292     1.833   261.109   259.067     0.000     0.000     0.000     0.401     0.000     0.000   706.489  1000.000     0.000     0.000     0.000     0.006
FRSD    1 000010001    1    0  4 10 1983 .45702E+02     0.000     0.000     0.000     0.000     1.716     1.373   259.067   257.632     0.000     0.000     0.000     0.300     0.000     0.000   706.189  1000.000     0.000     0.000     0.000     0.007
FRSD    1 000010001    1    0  4 11 1983 .45702E+02     0.000     0.000     0.000     0.000     2.474     1.979   257.632   255.653     0.000     0.000     0.000     0.432     0.000     0.000   705.757  1000.000     0.000     0.000     0.000     0.006
FRSD    1 000010001    1    0  4 12 1983 .45702E+02     0.000     0.000     0.000     0.000     2.510     1.914   255.653   253.739     0.000     0.000     0.000     0.439     0.000     0.000   705.318  1000.000     0.000     0.000     0.000     0.006
FRSD    1 000010001    1    0  4 13 1983 .45702E+02     5.400     0.000     0.000     0.000     1.561     1.477   253.739   257.650     0.000     0.000     0.000     0.273     0.000     0.000   705.045  1000.000     0.000     0.000     0.000     0.006
FRSD    1 000010001    1    0  4 14 1983 .45702E+02     1.100     0.000     0.000     0.000     1.288     1.251   257.650   257.499     0.000     0.000     0.000     0.225     0.000     0.000   704.820  1000.000     0.000     0.000     0.000     0.005
FRSD    1 000010001    1    0  4 15 1983 .45702E+02     0.000     0.000     0.000     0.000     1.260     1.014   257.499   256.486     0.000     0.000     0.000     0.220     0.000     0.000   704.600  1000.000     0.000     0.000     0.000     0.005
FRSD    1 000010001    1    0  4 16 1983 .45702E+02     0.000     0.000     0.000     0.000     1.672     1.346   256.486   255.139     0.000     0.000     0.000     0.292     0.000     0.000   704.307  1000.000     0.000     0.000     0.000     0.004
FRSD    1 000010001    1    0  4 17 1983 .45702E+02     0.000     0.000     0.000     0.000     1.634     1.318   255.139   253.822     0.000     0.000     0.000     0.286     0.000     0.000   704.022  1000.000     0.000     0.000     0.000     0.004
FRSD    1 000010001    1    0  4 18 1983 .45702E+02     0.100     0.000     0.000     0.000     1.776     1.413   253.822   252.509     0.000     0.000     0.000     0.310     0.000     0.000   703.711  1000.000     0.000     0.000     0.000     0.003
FRSD    1 000010001    1    0  4 19 1983 .45702E+02     0.000     0.000     0.000     0.000     2.086     1.554   252.509   250.955     0.000     0.000     0.000     0.365     0.000     0.000   703.346  1000.000     0.000     0.000     0.000     0.003
FRSD    1 000010001    1    0  4 20 1983 .45702E+02     0.000     0.000     0.000     0.000     2.481     1.754   250.955   249.201     0.000     0.000     0.000     0.434     0.000     0.000   702.912  1000.000     0.000     0.000     0.000     0.003
FRSD    1 000010001    1    0  4 21 1983 .45702E+02     0.000     0.000     0.000     0.000     3.014     2.021   249.201   247.180     0.000     0.000     0.000     0.527     0.000     0.000   702.386  1000.000     0.000     0.000     0.000     0.003
FRSD    1 000010001    1    0  4 22 1983 .45702E+02     0.000     0.000     0.000     0.000     3.398     2.161   247.180   245.019     0.000     0.000     0.000     0.594     0.000     0.000   701.792  1000.000     0.000     0.000     0.000     0.002
FRSD    1 000010001    1    0  4 23 1983 .45702E+02     0.000     0.000     0.000     0.000     3.353     2.028   245.019   242.992     0.000     0.000     0.000     0.586     0.000     0.000   701.206  1000.000     0.000     0.000     0.000     0.002
FRSD    1 000010001    1    0  4 24 1983 .45702E+02     0.000     0.000     0.000     0.000     3.425     1.984   242.992   241.007     0.000     0.000     0.000     0.599     0.000     0.000   700.607  1000.000     0.000     0.000     0.000     0.002
FRSD    1 000010001    1    0  4 25 1983 .45702E+02     0.000     0.000     0.000     0.000     4.211     2.342   241.007   238.665     0.000     0.000     0.000     0.736     0.000     0.000   699.871  1000.000     0.000     0.000     0.000     0.002
FRSD    1 000010001    1    0  4 26 1983 .45702E+02     0.000     0.000     0.000     0.000     3.799     1.961   238.665   236.704     0.000     0.000     0.000     0.664     0.000     0.000   699.207  1000.000     0.000     0.000     0.000     0.002
FRSD    1 000010001    1    0  4 27 1983 .45702E+02     0.400     0.000     0.000     0.000     3.707     2.043   236.704   235.060     0.000     0.000     0.000     0.648     0.000     0.000   698.559  1000.000     0.000     0.000     0.000     0.001
FRSD    1 000010001    1    0  4 28 1983 .45702E+02     0.600     0.000     0.000     0.000     2.803     1.666   235.060   233.994     0.000     0.000     0.000     0.490     0.000     0.000   698.069  1000.000     0.000     0.000     0.000     0.001
FRSD    1 000010001    1    0  4 29 1983 .45702E+02     1.400     0.000     0.000     0.000     2.148     1.652   233.994   233.743     0.000     0.000     0.000     0.375     0.000     0.000   697.693  1000.000     0.000     0.000     0.000     0.001
FRSD    1 000010001    1    0  4 30 1983 .45702E+02     0.000     0.000     0.000     0.000     2.509     1.263   233.743   232.479     0.000     0.000     0.000     0.438     0.000     0.000   697.255  1000.000     0.000     0.000     0.000     0.001
FRSD    1 000010001    1    0  5  1 1983 .45702E+02     0.000     0.000     0.000     0.000     3.245     1.602   232.479   230.877     0.000     0.000     0.000     0.567     0.000     0.000   696.687  1000.000     0.000     0.000     0.000     0.001
FRSD    1 000010001    1    0  5  2 1983 .45702E+02     0.000     0.000     0.000     0.000     3.336     1.573   230.877   229.305     0.000     0.000     0.000     0.583     0.000     0.000   696.104  1000.000     0.000     0.000     0.000     0.001
FRSD    1 000010001    1    0  5  3 1983 .45702E+02     0.000     0.000     0.000     0.000     3.893     1.754   229.305   227.550     0.000     0.000     0.000     0.681     0.000     0.000   695.424  1000.000     0.000     0.000     0.000     0.001
FRSD    1 000010001    1    0  5  4 1983 .45702E+02     0.000     0.000     0.000     0.000     4.146     1.821   227.550   225.730     0.000     0.000     0.000     0.725     0.000     0.000   694.699  1000.000     0.000     0.000     0.000     0.001
FRSD    1 000010001    1    0  5  5 1983 .45702E+02     0.000     0.000     0.000     0.000     3.001     1.289   225.730   224.440     0.000     0.000     0.000     0.525     0.000     0.000   694.174  1000.000     0.000     0.000     0.000     0.001
FRSD    1 000010001    1    0  5  6 1983 .45702E+02     0.000     0.000     0.000     0.000     3.983     1.687   224.440   222.753     0.000     0.000     0.000     0.696     0.000     0.000   693.478  1000.000     0.000     0.000     0.000     0.001
FRSD    1 000010001    1    0  5  7 1983 .45702E+02     0.000     0.000     0.000     0.000     3.739     1.557   222.753   221.196     0.000     0.000     0.000     0.654     0.000     0.000   692.824  1000.000     0.000     0.000     0.000     0.001
FRSD    1 000010001    1    0  5  8 1983 .45702E+02     0.000     0.000     0.000     0.000     3.488     1.431   221.196   219.765     0.000     0.000     0.000     0.610     0.000     0.000   692.215  1000.000     0.000     0.000     0.000     0.001
FRSD    1 000010001    1    0  5  9 1983 .45702E+02     0.100     0.000     0.000     0.000     3.779     1.590   219.765   218.275     0.000     0.000     0.000     0.661     0.000     0.000   691.554  1000.000     0.000     0.000     0.000     0.000
FRSD    1 000010001    1    0  5 10 1983 .45702E+02     1.600     0.000     0.000     0.000     3.927     2.365   218.275   217.510     0.000     0.000     0.000     0.686     0.000     0.000   690.868  1000.000     0.000     0.000     0.000     0.000
FRSD    1 000010001    1    0  5 11 1983 .45702E+02     0.600     0.000     0.000     0.000     4.487     2.276   217.510   215.835     0.000     0.000     0.000     0.784     0.000     0.000   690.083  1000.000     0.000     0.000     0.000     0.000
FRSD    1 000010001    1    0  5 12 1983 .45702E+02     0.800     0.000     0.000     0.000     3.658     2.007   215.835   214.628     0.000     0.000     0.000     0.639     0.000     0.000   689.444  1000.000     0.000     0.000     0.000     0.000
FRSD    1 000010001    1    0  5 13 1983 .45702E+02    15.200     0.000     0.000     0.000     3.880     3.414   214.628   226.369     0.000     0.000     0.000     0.678     0.000     0.000   688.765  1000.000     0.000     0.000     0.000     0.002
FRSD    1 000010001    1    0  5 14 1983 .45702E+02     0.000     0.000     0.000     0.000     3.172     2.154   226.369   224.216     0.000     0.000     0.000     0.554     0.000     0.000   688.211  1000.000     0.000     0.000     0.000     0.001
FRSD    1 000010001    1    0  5 15 1983 .45702E+02     1.900     0.000     0.000     0.000     2.708     2.247   224.216   223.868     0.000     0.000     0.000     0.473     0.000     0.000   687.737  1000.000     0.000     0.000     0.000     0.001
FRSD    1 000010001    1    0  5 16 1983 .45702E+02     0.200     0.000     0.000     0.000     2.593     1.745   223.868   222.323     0.000     0.000     0.000     0.453     0.000     0.000   687.284  1000.000     0.000     0.000     0.000     0.001
FRSD    1 000010001    1    0  5 17 1983 .45702E+02     0.000     0.000     0.000     0.000     3.252     1.921   222.323   220.402     0.000     0.000     0.000     0.568     0.000     0.000   686.715  1000.000     0.000     0.000     0.000     0.001
FRSD    1 000010001    1    0  5 18 1983 .45702E+02     0.000     0.000     0.000     0.000     4.395     2.397   220.402   218.005     0.000     0.000     0.000     0.768     0.000     0.000   685.947  1000.000     0.000     0.000     0.000     0.001
FRSD    1 000010001    1    0  5 19 1983 .45702E+02     1.900     0.000     0.000     0.000     3.823     2.651   218.005   217.254     0.000     0.000     0.000     0.668     0.000     0.000   685.279  1000.000     0.000     0.000     0.000     0.001
FRSD    1 000010001    1    0  5 20 1983 .45702E+02     6.900     0.000     0.000     0.000     2.958     2.660   217.254   221.477     0.000     0.000     0.000     0.517     0.000     0.000   684.762  1000.000     0.000     0.000     0.000     0.001
FRSD    1 000010001    1    0  5 21 1983 .45702E+02     2.800     0.000     0.000     0.000     3.403     3.034   221.477   221.239     0.000     0.000     0.000     0.595     0.000     0.000   684.167  1000.000     0.000     0.000     0.000     0.001
FRSD    1 000010001    1    0  5 22 1983 .45702E+02     0.500     0.000     0.000     0.000     4.879     3.558   221.239   218.181     0.000     0.000     0.000     0.853     0.000     0.000   683.314  1000.000     0.000     0.000     0.000     0.001
FRSD    1 000010001    1    0  5 23 1983 .45702E+02     0.100     0.000     0.000     0.000     3.853     2.296   218.181   215.984     0.000     0.000     0.000     0.673     0.000     0.000   682.640  1000.000     0.000     0.000     0.000     0.001
FRSD    1 000010001    1    0  5 24 1983 .45702E+02     3.400     0.000     0.000     0.000     4.789     4.070   215.984   215.311     0.000     0.000     0.000     0.837     0.000     0.000   681.803  1000.000     0.000     0.000     0.000     0.001
FRSD    1 000010001    1    0  5 25 1983 .45702E+02     0.200     0.000     0.000     0.000     3.778     2.233   215.311   213.279     0.000     0.000     0.000     0.660     0.000     0.000   681.143  1000.000     0.000     0.000     0.000     0.001
FRSD    1 000010001    1    0  5 26 1983 .45702E+02     0.000     0.000     0.000     0.000     3.942     2.057   213.279   211.222     0.000     0.000     0.000     0.689     0.000     0.000   680.454  1000.000     0.000     0.000     0.000     0.001
FRSD    1 000010001    1    0  5 27 1983 .45702E+02     2.500     0.000     0.000     0.000     4.249     3.138   211.222   210.583     0.000     0.000     0.000     0.743     0.000     0.000   679.711  1000.000     0.000     0.000     0.000     0.001
FRSD    1 000010001    1    0  5 28 1983 .45702E+02     9.900     0.000     0.000     0.000     4.296     3.801   210.583   216.650     0.000     0.000     0.000     0.751     0.000     0.000   678.960  1000.000     0.000     0.000     0.000     0.002
FRSD    1 000010001    1    0  5 29 1983 .45702E+02     2.700     0.000     0.000     0.000     4.171     3.699   216.650   215.648     0.000     0.000     0.000     0.729     0.000     0.000   678.231  1000.000     0.000     0.000     0.000     0.001
FRSD    1 000010001    1    0  5 30 1983 .45702E+02     1.300     0.000     0.000     0.000     3.152     2.534   215.648   214.414     0.000     0.000     0.000     0.551     0.000     0.000   677.680  1000.000     0.000     0.000     0.000     0.001
FRSD    1 000010001    1    0  5 31 1983 .45702E+02     1.900     0.000     0.000     0.000     3.361     2.822   214.414   213.492     0.000     0.000     0.000     0.588     0.000     0.000   677.092  1000.000     0.000     0.000     0.000     0.001
FRSD    1 000010001    1    0  6  1 1983 .45702E+02     0.100     0.000     0.000     0.000     4.407     2.875   213.492   210.717     0.000     0.000     0.000     0.770     0.000     0.000   676.322  1000.000     0.000     0.000     0.000     0.001
FRSD    1 000010001    1    0  6  2 1983 .45702E+02     0.000     0.000     0.000     0.000     4.450     2.457   210.717   208.260     0.000     0.000     0.000     0.778     0.000     0.000   675.544  1000.000     0.000     0.000     0.000     0.001
FRSD    1 000010001    1    0  6  3 1983 .45702E+02     5.200     0.000     0.000     0.000     4.796     4.152   208.260   209.300     0.000     0.000     0.000     0.838     0.000     0.000   674.706  1000.000     0.000     0.000     0.000     0.001
FRSD    1 000010001    1    0  6  4 1983 .45702E+02     1.100     0.000     0.000     0.000     4.426     3.028   209.300   207.372     0.000     0.000     0.000     0.774     0.000     0.000   673.932  1000.000     0.000     0.000     0.000     0.001
FRSD    1 000010001    1    0  6  5 1983 .45702E+02     0.800     0.000     0.000     0.000     3.896     2.450   207.372   205.722     0.000     0.000     0.000     0.681     0.000     0.000   673.251  1000.000     0.000     0.000     0.000     0.001
FRSD    1 000010001    1    0  6  6 1983 .45702E+02     0.600     0.000     0.000     0.000     3.965     2.294   205.722   204.027     0.000     0.000     0.000     0.693     0.000     0.000   672.558  1000.000     0.000     0.000     0.000     0.001
FRSD    1 000010001    1    0  6  7 1983 .45702E+02     0.000     0.000     0.000     0.000     5.102     2.448   204.027   201.579     0.000     0.000     0.000     0.892     0.000     0.000   671.666  1000.000     0.000     0.000     0.000     0.001
FRSD    1 000010001    1    0  6  8 1983 .45702E+02     0.200     0.000     0.000     0.000     5.055     2.395   201.579   199.384     0.000     0.000     0.000     0.884     0.000     0.000   670.782  1000.000     0.000     0.000     0.000     0.001
FRSD    1 000010001    1    0  6  9 1983 .45702E+02     0.100     0.000     0.000     0.000     5.139     2.188   199.384   197.296     0.000     0.000     0.000     0.898     0.000     0.000   669.884  1000.000     0.000     0.000     0.000     0.001
FRSD    1 000010001    1    0  6 10 1983 .45702E+02     1.300     0.000     0.000     0.000     5.153     2.852   197.296   195.744     0.000     0.000     0.000     0.901     0.000     0.000   668.983  1000.000     0.000     0.000     0.000     0.001
FRSD    1 000010001    1    0  6 11 1983 .45702E+02     3.900     0.000     0.000     0.000     5.015     3.846   195.744   195.797     0.000     0.000     0.000     0.877     0.000     0.000   668.107  1000.000     0.000     0.000     0.000     0.001
FRSD    1 000010001    1    0  6 12 1983 .45702E+02     1.000     0.000     0.000     0.000     5.191     2.965   195.797   193.832     0.000     0.000     0.000     0.907     0.000     0.000   667.199  1000.000     0.000     0.000     0.000     0.001
FRSD    1 000010001    1    0  6 13 1983 .45702E+02     7.700     0.000     0.000     0.000     3.706     3.123   193.832   198.391     0.000     0.000     0.000     0.648     0.000     0.000   666.551  1000.000     0.000     0.000     0.000     0.001
FRSD    1 000010001    1    0  6 14 1983 .45702E+02    38.500     0.000     0.000     0.000     4.768     4.335   198.391   232.221     0.000     0.000     0.000     0.833     0.000     0.000   665.718  1000.000     0.000     0.000     0.000     0.010
FRSD    1 000010001    1    0  6 15 1983 .45702E+02    18.800     0.000     0.000     0.000     3.270     3.036   232.221   247.721     0.000     0.000     0.000     0.572     0.000     0.000   665.146  1000.000     0.000     0.000     0.000     0.016
FRSD    1 000010001    1    0  6 16 1983 .45702E+02     2.800     0.000     0.000     0.000     2.873     2.686   247.721   247.831     0.000     0.000     0.000     0.502     0.000     0.000   664.644  1000.000     0.000     0.000     0.000     0.015
FRSD    1 000010001    1    0  6 17 1983 .45702E+02     0.000     0.000     0.000     0.000     4.099     3.616   247.831   244.216     0.000     0.000     0.000     0.716     0.000     0.000   663.927  1000.000     0.000     0.000     0.000     0.014
FRSD    1 000010001    1    0  6 18 1983 .45702E+02     0.000     0.000     0.000     0.000     4.844     3.861   244.216   240.355     0.000     0.000     0.000     0.847     0.000     0.000   663.081  1000.000     0.000     0.000     0.000     0.012
FRSD    1 000010001    1    0  6 19 1983 .45702E+02     0.000     0.000     0.000     0.000     4.847     3.428   240.355   236.928     0.000     0.000     0.000     0.847     0.000     0.000   662.233  1000.000     0.000     0.000     0.000     0.011
FRSD    1 000010001    1    0  6 20 1983 .45702E+02     0.000     0.000     0.000     0.000     4.800     3.139   236.928   233.788     0.000     0.000     0.000     0.839     0.000     0.000   661.394  1000.000     0.000     0.000     0.000     0.010
FRSD    1 000010001    1    0  6 21 1983 .45702E+02    11.700     0.000     0.000     0.000     4.521     4.188   233.788   241.261     0.000     0.000     0.000     0.790     0.000     0.000   660.604  1000.000     0.000     0.000     0.000     0.010
FRSD    1 000010001    1    0  6 22 1983 .45702E+02    29.000     0.000     0.000     0.000     4.869     4.526   241.261   265.290     0.000     0.000     0.000     0.851     0.000     0.000   659.753  1000.000     0.000     0.000     0.000     0.022
FRSD    1 000010001    1    0  6 23 1983 .45702E+02     0.000     0.000     0.000     0.000     5.560     5.059   265.290   260.230     0.000     0.000     0.000     0.972     0.000     0.000   658.781  1000.000     0.000     0.000     0.000     0.020
FRSD    1 000010001    1    0  6 24 1983 .45702E+02     1.600     0.000     0.000     0.000     5.688     4.829   260.230   257.001     0.000     0.000     0.000     0.994     0.000     0.000   657.786  1000.000     0.000     0.000     0.000     0.018
FRSD    1 000010001    1    0  6 25 1983 .45702E+02     1.000     0.000     0.000     0.000     5.347     4.238   257.001   253.763     0.000     0.000     0.000     0.935     0.000     0.000   656.852  1000.000     0.000     0.000     0.000     0.016
FRSD    1 000010001    1    0  6 26 1983 .45702E+02     1.000     0.000     0.000     0.000     6.064     4.593   253.763   250.171     0.000     0.000     0.000     1.060     0.000     0.000   655.792  1000.000     0.000     0.000     0.000     0.015
FRSD    1 000010001    1    0  6 27 1983 .45702E+02     0.100     0.000     0.000     0.000     5.793     3.888   250.171   246.382     0.000     0.000     0.000     1.013     0.000     0.000   654.779  1000.000     0.000     0.000     0.000     0.013
FRSD    1 000010001    1    0  6 28 1983 .45702E+02     0.000     0.000     0.000     0.000     4.942     3.116   246.382   243.266     0.000     0.000     0.000     0.864     0.000     0.000   653.915  1000.000     0.000     0.000     0.000     0.012
FRSD    1 000010001    1    0  6 29 1983 .45702E+02     2.500     0.000     0.000     0.000     5.102     3.961   243.266   241.805     0.000     0.000     0.000     0.892     0.000     0.000   653.023  1000.000     0.000     0.000     0.000     0.011
FRSD    1 000010001    1    0  6 30 1983 .45702E+02    15.600     0.000     0.000     0.000     3.066     3.018   241.805   254.332     0.000     0.000     0.000     0.536     0.000     0.000   652.487  1000.000     0.000     0.000     0.000     0.012
FRSD    1 000010001    1    0  7  1 1983 .45702E+02     0.600     0.000     0.000     0.000     4.747     4.617   254.332   250.315     0.000     0.000     0.000     0.830     0.000     0.000   651.657  1000.000     0.000     0.000     0.000     0.010
FRSD    1 000010001    1    0  7  2 1983 .45702E+02     0.000     0.000     0.000     0.000     4.736     3.988   250.315   246.326     0.000     0.000     0.000     0.828     0.000     0.000   650.830  1000.000     0.000     0.000     0.000     0.010
FRSD    1 000010001    1    0  7  3 1983 .45702E+02    58.400     0.000     0.000     0.000     4.400     4.365   246.326   299.455     0.000     0.000     0.000     0.769     0.000     0.000   650.060  1000.000     0.000     0.000     0.000     0.033
FRSD    1 000010001    1    0  7  4 1983 .45702E+02     8.800     0.000     0.000     0.000     4.344     4.333   299.455   303.824     0.000     0.000     0.000     0.759     0.000     0.000   649.301  1000.000     0.000     0.000     0.000     0.033
FRSD    1 000010001    1    0  7  5 1983 .45702E+02     2.500     0.000     0.000     0.000     4.432     4.432   303.824   301.892     0.000     0.000     0.000     0.775     0.000     0.000   648.526  1000.000     0.000     0.000     0.000     0.030
FRSD    1 000010001    1    0  7  6 1983 .45702E+02     0.000     0.000     0.000     0.000     4.355     4.341   301.892   297.551     0.000     0.000     0.000     0.761     0.000     0.000   647.765  1000.000     0.000     0.000     0.000     0.027
FRSD    1 000010001    1    0  7  7 1983 .45702E+02     0.000     0.000     0.000     0.000     5.357     4.691   297.551   292.860     0.000     0.000     0.000     0.936     0.000     0.000   646.829  1000.000     0.000     0.000     0.000     0.025
FRSD    1 000010001    1    0  7  8 1983 .45702E+02     0.300     0.000     0.000     0.000     5.536     4.491   292.860   288.668     0.000     0.000     0.000     0.968     0.000     0.000   645.861  1000.000     0.000     0.000     0.000     0.023
FRSD    1 000010001    1    0  7  9 1983 .45702E+02     0.000     0.000     0.000     0.000     6.273     4.736   288.668   283.933     0.000     0.000     0.000     1.097     0.000     0.000   644.764  1000.000     0.000     0.000     0.000     0.020
FRSD    1 000010001    1    0  7 10 1983 .45702E+02     2.600     0.000     0.000     0.000     5.802     4.843   283.933   281.689     0.000     0.000     0.000     1.014     0.000     0.000   643.750  1000.000     0.000     0.000     0.000     0.019
FRSD    1 000010001    1    0  7 11 1983 .45702E+02     0.000     0.000     0.000     0.000     6.485     4.696   281.689   276.994     0.000     0.000     0.000     1.134     0.000     0.000   642.617  1000.000     0.000     0.000     0.000     0.017
FRSD    1 000010001    1    0  7 12 1983 .45702E+02     0.000     0.000     0.000     0.000     4.838     3.393   276.994   273.601     0.000     0.000     0.000     0.846     0.000     0.000   641.771  1000.000     0.000     0.000     0.000     0.015
FRSD    1 000010001    1    0  7 13 1983 .45702E+02     0.000     0.000     0.000     0.000     6.069     4.083   273.601   269.518     0.000     0.000     0.000     1.061     0.000     0.000   640.710  1000.000     0.000     0.000     0.000     0.014
FRSD    1 000010001    1    0  7 14 1983 .45702E+02     0.000     0.000     0.000     0.000     6.081     4.052   269.518   265.467     0.000     0.000     0.000     1.063     0.000     0.000   639.647  1000.000     0.000     0.000     0.000     0.013
FRSD    1 000010001    1    0  7 15 1983 .45702E+02     0.000     0.000     0.000     0.000     6.377     4.275   265.467   261.192     0.000     0.000     0.000     1.115     0.000     0.000   638.532  1000.000     0.000     0.000     0.000     0.012
FRSD    1 000010001    1    0  7 16 1983 .45702E+02     7.600     0.000     0.000     0.000     5.661     5.381   261.192   263.402     0.000     0.000     0.000     0.990     0.000     0.000   637.542  1000.000     0.000     0.000     0.000     0.011
FRSD    1 000010001    1    0  7 17 1983 .45702E+02     0.500     0.000     0.000     0.000     5.325     4.318   263.402   259.584     0.000     0.000     0.000     0.931     0.000     0.000   636.612  1000.000     0.000     0.000     0.000     0.010
FRSD    1 000010001    1    0  7 18 1983 .45702E+02     4.900     0.000     0.000     0.000     4.745     4.567   259.584   259.915     0.000     0.000     0.000     0.829     0.000     0.000   635.782  1000.000     0.000     0.000     0.000     0.009
FRSD    1 000010001    1    0  7 19 1983 .45702E+02     3.900     0.000     0.000     0.000     5.113     4.912   259.915   258.901     0.000     0.000     0.000     0.894     0.000     0.000   634.888  1000.000     0.000     0.000     0.000     0.008
FRSD    1 000010001    1    0  7 20 1983 .45702E+02     0.300     0.000     0.000     0.000     5.388     4.521   258.901   254.680     0.000     0.000     0.000     0.942     0.000     0.000   633.946  1000.000     0.000     0.000     0.000     0.007
FRSD    1 000010001    1    0  7 21 1983 .45702E+02     8.600     0.000     0.000     0.000     4.682     4.574   254.680   258.690     0.000     0.000     0.000     0.818     0.000     0.000   633.128  1000.000     0.000     0.000     0.000     0.007
FRSD    1 000010001    1    0  7 22 1983 .45702E+02     0.000     0.000     0.000     0.000     5.415     4.753   258.690   253.937     0.000     0.000     0.000     0.947     0.000     0.000   632.181  1000.000     0.000     0.000     0.000     0.006
FRSD    1 000010001    1    0  7 23 1983 .45702E+02     0.000     0.000     0.000     0.000     5.753     4.632   253.937   249.306     0.000     0.000     0.000     1.006     0.000     0.000   631.176  1000.000     0.000     0.000     0.000     0.006
FRSD    1 000010001    1    0  7 24 1983 .45702E+02     0.900     0.000     0.000     0.000     4.898     4.052   249.306   246.154     0.000     0.000     0.000     0.856     0.000     0.000   630.319  1000.000     0.000     0.000     0.000     0.005
FRSD    1 000010001    1    0  7 25 1983 .45702E+02     0.100     0.000     0.000     0.000     5.346     4.213   246.154   242.041     0.000     0.000     0.000     0.935     0.000     0.000   629.385  1000.000     0.000     0.000     0.000     0.005
FRSD    1 000010001    1    0  7 26 1983 .45702E+02     1.000     0.000     0.000     0.000     5.445     4.484   242.041   238.557     0.000     0.000     0.000     0.952     0.000     0.000   628.433  1000.000     0.000     0.000     0.000     0.004
FRSD    1 000010001    1    0  7 27 1983 .45702E+02     0.000     0.000     0.000     0.000     4.903     3.863   238.557   234.694     0.000     0.000     0.000     0.857     0.000     0.000   627.576  1000.000     0.000     0.000     0.000     0.004
FRSD    1 000010001    1    0  7 28 1983 .45702E+02     0.400     0.000     0.000     0.000     4.799     3.897   234.694   231.197     0.000     0.000     0.000     0.839     0.000     0.000   626.737  1000.000     0.000     0.000     0.000     0.004
FRSD    1 000010001    1    0  7 29 1983 .45702E+02     0.000     0.000     0.000     0.000     5.929     4.756   231.197   226.441     0.000     0.000     0.000     1.036     0.000     0.000   625.701  1000.000     0.000     0.000     0.000     0.003
FRSD    1 000010001    1    0  7 30 1983 .45702E+02     4.500     0.000     0.000     0.000     5.907     5.598   226.441   225.343     0.000     0.000     0.000     1.033     0.000     0.000   624.668  1000.000     0.000     0.000     0.000     0.003
FRSD    1 000010001    1    0  7 31 1983 .45702E+02     9.200     0.000     0.000     0.000     4.565     4.553   225.343   229.980     0.000     0.000     0.000     0.798     0.000     0.000   623.870  1000.000     0.000     0.000     0.000     0.003
FRSD    1 000010001    1    0  8  1 1983 .45702E+02     0.200     0.000     0.000     0.000     4.634     4.302   229.980   225.878     0.000     0.000     0.000     0.810     0.000     0.000   623.060  1000.000     0.000     0.000     0.000     0.003
FRSD    1 000010001    1    0  8  2 1983 .45702E+02     0.300     0.000     0.000     0.000     5.199     4.570   225.878   221.607     0.000     0.000     0.000     0.909     0.000     0.000   622.151  1000.000     0.000     0.000     0.000     0.002
FRSD    1 000010001    1    0  8  3 1983 .45702E+02    12.500     0.000     0.000     0.000     4.044     4.044   221.607   229.423     0.000     0.000     0.000     0.707     0.000     0.000   621.444  1000.000     0.000     0.000     0.000     0.003
FRSD    1 000010001    1    0  8  4 1983 .45702E+02     0.000     0.000     0.000     0.000     5.359     5.130   229.423   224.908     0.000     0.000     0.000     0.937     0.000     0.000   620.507  1000.000     0.000     0.000     0.000     0.003
FRSD    1 000010001    1    0  8  5 1983 .45702E+02     0.000     0.000     0.000     0.000     5.371     4.768   224.908   220.139     0.000     0.000     0.000     0.939     0.000     0.000   619.568  1000.000     0.000     0.000     0.000     0.002
FRSD    1 000010001    1    0  8  6 1983 .45702E+02     0.000     0.000     0.000     0.000     6.079     5.232   220.139   214.908     0.000     0.000     0.000     1.063     0.000     0.000   618.506  1000.000     0.000     0.000     0.000     0.002
FRSD    1 000010001    1    0  8  7 1983 .45702E+02     0.500     0.000     0.000     0.000     5.671     4.864   214.908   210.544     0.000     0.000     0.000     0.991     0.000     0.000   617.514  1000.000     0.000     0.000     0.000     0.002
FRSD    1 000010001    1    0  8  8 1983 .45702E+02     0.300     0.000     0.000     0.000     6.928     5.833   210.544   205.011     0.000     0.000     0.000     1.211     0.000     0.000   616.303  1000.000     0.000     0.000     0.000     0.002
FRSD    1 000010001    1    0  8  9 1983 .45702E+02     0.000     0.000     0.000     0.000     5.004     4.148   205.011   200.863     0.000     0.000     0.000     0.875     0.000     0.000   615.428  1000.000     0.000     0.000     0.000     0.002
FRSD    1 000010001    1    0  8 10 1983 .45702E+02    29.400     0.000     0.000     0.000     3.668     3.668   200.863   224.639     0.000     0.000     0.000     0.641     0.000     0.000   614.787  1000.000     0.000     0.000     0.000     0.005
FRSD    1 000010001    1    0  8 11 1983 .45702E+02     0.000     0.000     0.000     0.000     4.417     4.417   224.639   222.067     0.000     0.000     0.000     0.772     0.000     0.000   614.015  1000.000     0.000     0.000     0.000     0.004
FRSD    1 000010001    1    0  8 12 1983 .45702E+02     0.000     0.000     0.000     0.000     4.574     4.449   222.067   217.617     0.000     0.000     0.000     0.799     0.000     0.000   613.216  1000.000     0.000     0.000     0.000     0.004
FRSD    1 000010001    1    0  8 13 1983 .45702E+02     0.900     0.000     0.000     0.000     4.446     4.172   217.617   214.345     0.000     0.000     0.000     0.777     0.000     0.000   612.439  1000.000     0.000     0.000     0.000     0.003
FRSD    1 000010001    1    0  8 14 1983 .45702E+02     0.400     0.000     0.000     0.000     4.956     4.500   214.345   210.245     0.000     0.000     0.000     0.866     0.000     0.000   611.572  1000.000     0.000     0.000     0.000     0.003
FRSD    1 000010001    1    0  8 15 1983 .45702E+02     0.000     0.000     0.000     0.000     4.835     4.249   210.245   205.995     0.000     0.000     0.000     0.845     0.000     0.000   610.727  1000.000     0.000     0.000     0.000     0.003
FRSD    1 000010001    1    0  8 16 1983 .45702E+02     0.400     0.000     0.000     0.000     5.537     4.834   205.995   201.561     0.000     0.000     0.000     0.968     0.000     0.000   609.759  1000.000     0.000     0.000     0.000     0.003
FRSD    1 000010001    1    0  8 17 1983 .45702E+02     2.100     0.000     0.000     0.000     3.640     3.412   201.561   200.249     0.000     0.000     0.000     0.636     0.000     0.000   609.123  1000.000     0.000     0.000     0.000     0.002
FRSD    1 000010001    1    0  8 18 1983 .45702E+02     0.000     0.000     0.000     0.000     5.036     4.279   200.249   195.970     0.000     0.000     0.000     0.880     0.000     0.000   608.242  1000.000     0.000     0.000     0.000     0.002
FRSD    1 000010001    1    0  8 19 1983 .45702E+02     5.000     0.000     0.000     0.000     4.515     4.515   195.970   195.970     0.000     0.000     0.000     0.789     0.000     0.000   607.453  1000.000     0.000     0.000     0.000     0.002
FRSD    1 000010001    1    0  8 20 1983 .45702E+02     0.000     0.000     0.000     0.000     4.233     3.643   195.970   192.811     0.000     0.000     0.000     0.740     0.000     0.000   606.713  1000.000     0.000     0.000     0.000     0.002
FRSD    1 000010001    1    0  8 21 1983 .45702E+02     8.300     0.000     0.000     0.000     3.344     3.344   192.811   194.776     0.000     0.000     0.000     0.585     0.000     0.000   606.129  1000.000     0.000     0.000     0.000     0.002
FRSD    1 000010001    1    0  8 22 1983 .45702E+02     2.700     0.000     0.000     0.000     4.211     4.211   194.776   194.776     0.000     0.000     0.000     0.736     0.000     0.000   605.392  1000.000     0.000     0.000     0.000     0.001
FRSD    1 000010001    1    0  8 23 1983 .45702E+02     0.000     0.000     0.000     0.000     3.971     3.785   194.776   192.470     0.000     0.000     0.000     0.694     0.000     0.000   604.698  1000.000     0.000     0.000     0.000     0.001
FRSD    1 000010001    1    0  8 24 1983 .45702E+02     4.700     0.000     0.000     0.000     3.903     3.903   192.470   192.470     0.000     0.000     0.000     0.682     0.000     0.000   604.016  1000.000     0.000     0.000     0.000     0.001
FRSD    1 000010001    1    0  8 25 1983 .45702E+02     3.300     0.000     0.000     0.000     4.127     4.123   192.470   192.443     0.000     0.000     0.000     0.721     0.000     0.000   603.295  1000.000     0.000     0.000     0.000     0.001
FRSD    1 000010001    1    0  8 26 1983 .45702E+02    18.600     0.000     0.000     0.000     4.924     4.924   192.443   204.394     0.000     0.000     0.000     0.861     0.000     0.000   602.434  1000.000     0.000     0.000     0.000     0.002
FRSD    1 000010001    1    0  8 27 1983 .45702E+02     0.000     0.000     0.000     0.000     4.532     4.532   204.394   201.542     0.000     0.000     0.000     0.792     0.000     0.000   601.641  1000.000     0.000     0.000     0.000     0.002
FRSD    1 000010001    1    0  8 28 1983 .45702E+02     2.000     0.000     0.000     0.000     4.746     4.650   201.542   198.892     0.000     0.000     0.000     0.830     0.000     0.000   600.812  1000.000     0.000     0.000     0.000     0.002
FRSD    1 000010001    1    0  8 29 1983 .45702E+02     4.100     0.000     0.000     0.000     4.505     4.479   198.892   198.513     0.000     0.000     0.000     0.787     0.000     0.000   600.024  1000.000     0.000     0.000     0.000     0.002
FRSD    1 000010001    1    0  8 30 1983 .45702E+02     1.700     0.000     0.000     0.000     3.676     3.542   198.513   196.672     0.000     0.000     0.000     0.643     0.000     0.000   599.382  1000.000     0.000     0.000     0.000     0.002
FRSD    1 000010001    1    0  8 31 1983 .45702E+02     0.100     0.000     0.000     0.000     4.296     3.949   196.672   192.822     0.000     0.000     0.000     0.751     0.000     0.000   598.631  1000.000     0.000     0.000     0.000     0.001
FRSD    1 000010001    1    0  9  1 1983 .45702E+02     0.200     0.000     0.000     0.000     4.258     3.826   192.822   189.197     0.000     0.000     0.000     0.744     0.000     0.000   597.886  1000.000     0.000     0.000     0.000     0.001
FRSD    1 000010001    1    0  9  2 1983 .45702E+02     0.000     0.000     0.000     0.000     4.681     4.106   189.197   185.091     0.000     0.000     0.000     0.818     0.000     0.000   597.068  1000.000     0.000     0.000     0.000     0.001
FRSD    1 000010001    1    0  9  3 1983 .45702E+02     0.100     0.000     0.000     0.000     5.307     4.595   185.091   180.596     0.000     0.000     0.000     0.928     0.000     0.000   596.140  1000.000     0.000     0.000     0.000     0.001
FRSD    1 000010001    1    0  9  4 1983 .45702E+02     0.400     0.000     0.000     0.000     4.011     3.480   180.596   177.516     0.000     0.000     0.000     0.701     0.000     0.000   595.439  1000.000     0.000     0.000     0.000     0.001
FRSD    1 000010001    1    0  9  5 1983 .45702E+02     2.200     0.000     0.000     0.000     3.426     3.239   177.516   176.477     0.000     0.000     0.000     0.599     0.000     0.000   594.840  1000.000     0.000     0.000     0.000     0.001
FRSD    1 000010001    1    0  9  6 1983 .45702E+02     5.400     0.000     0.000     0.000     3.621     3.621   176.477   176.477     0.000     0.000     0.000     0.633     0.000     0.000   594.207  1000.000     0.000     0.000     0.000     0.001
FRSD    1 000010001    1    0  9  7 1983 .45702E+02     0.300     0.000     0.000     0.000     2.418     2.366   176.477   176.190     0.000     0.000     0.000     0.423     0.000     0.000   593.785  1000.000     0.000     0.000     0.000     0.001
FRSD    1 000010001    1    0  9  8 1983 .45702E+02     0.000     0.000     0.000     0.000     3.477     2.940   176.190   173.250     0.000     0.000     0.000     0.608     0.000     0.000   593.177  1000.000     0.000     0.000     0.000     0.001
FRSD    1 000010001    1    0  9  9 1983 .45702E+02     0.100     0.000     0.000     0.000     4.036     3.413   173.250   169.937     0.000     0.000     0.000     0.706     0.000     0.000   592.471  1000.000     0.000     0.000     0.000     0.001
FRSD    1 000010001    1    0  9 10 1983 .45702E+02     8.400     0.000     0.000     0.000     3.300     3.300   169.937   171.097     0.000     0.000     0.000     0.577     0.000     0.000   591.894  1000.000     0.000     0.000     0.000     0.001
FRSD    1 000010001    1    0  9 11 1983 .45702E+02     0.200     0.000     0.000     0.000     2.807     2.807   171.097   171.097     0.000     0.000     0.000     0.491     0.000     0.000   591.404  1000.000     0.000     0.000     0.000     0.000
FRSD    1 000010001    1    0  9 12 1983 .45702E+02     4.400     0.000     0.000     0.000     1.881     1.881   171.097   171.097     0.000     0.000     0.000     0.329     0.000     0.000   591.075  1000.000     0.000     0.000     0.000     0.000
FRSD    1 000010001    1    0  9 13 1983 .45702E+02     0.200     0.000     0.000     0.000     2.597     2.597   171.097   171.097     0.000     0.000     0.000     0.454     0.000     0.000   590.621  1000.000     0.000     0.000     0.000     0.000
FRSD    1 000010001    1    0  9 14 1983 .45702E+02     0.500     0.000     0.000     0.000     2.711     2.609   171.097   170.444     0.000     0.000     0.000     0.474     0.000     0.000   590.147  1000.000     0.000     0.000     0.000     0.000
FRSD    1 000010001    1    0  9 15 1983 .45702E+02    10.400     0.000     0.000     0.000     2.510     2.510   170.444   173.578     0.000     0.000     0.000     0.439     0.000     0.000   589.708  1000.000     0.000     0.000     0.000     0.001
FRSD    1 000010001    1    0  9 16 1983 .45702E+02    14.500     0.000     0.000     0.000     1.177     1.177   173.578   185.513     0.000     0.000     0.000     0.206     0.000     0.000   589.502  1000.000     0.000     0.000     0.000     0.002
FRSD    1 000010001    1    0  9 17 1983 .45702E+02     0.300     0.000     0.000     0.000     1.533     1.533   185.513   185.513     0.000     0.000     0.000     0.268     0.000     0.000   589.234  1000.000     0.000     0.000     0.000     0.002
FRSD    1 000010001    1    0  9 18 1983 .45702E+02     1.000     0.000     0.000     0.000     2.178     2.178   185.513   185.513     0.000     0.000     0.000     0.381     0.000     0.000   588.854  1000.000     0.000     0.000     0.000     0.002
FRSD    1 000010001    1    0  9 19 1983 .45702E+02     0.600     0.000     0.000     0.000     2.118     2.118   185.513   185.513     0.000     0.000     0.000     0.370     0.000     0.000   588.483  1000.000     0.000     0.000     0.000     0.001
FRSD    1 000010001    1    0  9 20 1983 .45702E+02     0.400     0.000     0.000     0.000     1.416     1.416   185.513   185.513     0.000     0.000     0.000     0.248     0.000     0.000   588.236  1000.000     0.000     0.000     0.000     0.001
FRSD    1 000010001    1    0  9 21 1983 .45702E+02     1.600     0.000     0.000     0.000     1.342     1.342   185.513   185.513     0.000     0.000     0.000     0.235     0.000     0.000   588.001  1000.000     0.000     0.000     0.000     0.001
FRSD    1 000010001    1    0  9 22 1983 .45702E+02     1.800     0.000     0.000     0.000     1.409     1.409   185.513   185.513     0.000     0.000     0.000     0.246     0.000     0.000   587.755  1000.000     0.000     0.000     0.000     0.001
FRSD    1 000010001    1    0  9 23 1983 .45702E+02     0.000     0.000     0.000     0.000     1.473     1.473   185.513   185.513     0.000     0.000     0.000     0.258     0.000     0.000   587.497  1000.000     0.000     0.000     0.000     0.001
FRSD    1 000010001    1    0  9 24 1983 .45702E+02     0.000     0.000     0.000     0.000     2.213     2.213   185.513   183.613     0.000     0.000     0.000     0.387     0.000     0.000   587.110  1000.000     0.000     0.000     0.000     0.001
FRSD    1 000010001    1    0  9 25 1983 .45702E+02     0.000     0.000     0.000     0.000     2.756     2.703   183.613   180.910     0.000     0.000     0.000     0.482     0.000     0.000   586.629  1000.000     0.000     0.000     0.000     0.001
FRSD    1 000010001    1    0  9 26 1983 .45702E+02     0.000     0.000     0.000     0.000     3.280     3.103   180.910   177.807     0.000     0.000     0.000     0.573     0.000     0.000   586.055  1000.000     0.000     0.000     0.000     0.001
FRSD    1 000010001    1    0  9 27 1983 .45702E+02     0.000     0.000     0.000     0.000     3.067     2.818   177.807   174.989     0.000     0.000     0.000     0.536     0.000     0.000   585.519  1000.000     0.000     0.000     0.000     0.001
FRSD    1 000010001    1    0  9 28 1983 .45702E+02     0.000     0.000     0.000     0.000     2.806     2.526   174.989   172.463     0.000     0.000     0.000     0.490     0.000     0.000   585.029  1000.000     0.000     0.000     0.000     0.001
FRSD    1 000010001    1    0  9 29 1983 .45702E+02     0.300     0.000     0.000     0.000     2.813     2.530   172.463   170.233     0.000     0.000     0.000     0.492     0.000     0.000   584.537  1000.000     0.000     0.000     0.000     0.001
FRSD    1 000010001    1    0  9 30 1983 .45702E+02     3.200     0.000     0.000     0.000     1.398     1.398   170.233   170.233     0.000     0.000     0.000     0.244     0.000     0.000   584.292  1000.000     0.000     0.000     0.000     0.001
FRSD    1 000010001    1    0 10  1 1983 .45702E+02    18.400     0.000     0.000     0.000     1.942     1.942   170.233   183.075     0.000     0.000     0.000     0.339     0.000     0.000   583.953  1000.000     0.000     0.000     0.000     0.002
FRSD    1 000010001    1    0 10  2 1983 .45702E+02     0.400     0.000     0.000     0.000     1.474     1.474   183.075   183.075     0.000     0.000     0.000     0.258     0.000     0.000   583.695  1000.000     0.000     0.000     0.000     0.002
FRSD    1 000010001    1    0 10  3 1983 .45702E+02    12.000     0.000     0.000     0.000     1.152     1.152   183.075   191.990     0.000     0.000     0.000     0.201     0.000     0.000   583.494  1000.000     0.000     0.000     0.000     0.004
FRSD    1 000010001    1    0 10  4 1983 .45702E+02     1.200     0.000     0.000     0.000     1.284     1.284   191.990   192.038     0.000     0.000     0.000     0.225     0.000     0.000   583.269  1000.000     0.000     0.000     0.000     0.003
FRSD    1 000010001    1    0 10  5 1983 .45702E+02     4.100     0.000     0.000     0.000     1.325     1.325   192.038   194.833     0.000     0.000     0.000     0.232     0.000     0.000   583.038  1000.000     0.000     0.000     0.000     0.004
FRSD    1 000010001    1    0 10  6 1983 .45702E+02     0.300     0.000     0.000     0.000     1.613     1.613   194.833   194.833     0.000     0.000     0.000     0.282     0.000     0.000   582.756  1000.000     0.000     0.000     0.000     0.003
FRSD    1 000010001    1    0 10  7 1983 .45702E+02     5.600     0.000     0.000     0.000     1.613     1.613   194.833   197.773     0.000     0.000     0.000     0.282     0.000     0.000   582.474  1000.000     0.000     0.000     0.000     0.004
FRSD    1 000010001    1    0 10  8 1983 .45702E+02     1.700     0.000     0.000     0.000     1.276     1.276   197.773   197.859     0.000     0.000     0.000     0.223     0.000     0.000   582.251  1000.000     0.000     0.000     0.000     0.003
FRSD    1 000010001    1    0 10  9 1983 .45702E+02     0.000     0.000     0.000     0.000     1.742     1.742   197.859   197.859     0.000     0.000     0.000     0.305     0.000     0.000   581.946  1000.000     0.000     0.000     0.000     0.003
FRSD    1 000010001    1    0 10 10 1983 .45702E+02     1.300     0.000     0.000     0.000     1.453     1.453   197.859   197.859     0.000     0.000     0.000     0.254     0.000     0.000   581.692  1000.000     0.000     0.000     0.000     0.003
FRSD    1 000010001    1    0 10 11 1983 .45702E+02    10.700     0.000     0.000     0.000     1.135     1.135   197.859   205.258     0.000     0.000     0.000     0.198     0.000     0.000   581.493  1000.000     0.000     0.000     0.000     0.006
FRSD    1 000010001    1    0 10 12 1983 .45702E+02     0.000     0.000     0.000     0.000     1.147     1.147   205.258   205.258     0.000     0.000     0.000     0.201     0.000     0.000   581.293  1000.000     0.000     0.000     0.000     0.005
FRSD    1 000010001    1    0 10 13 1983 .45702E+02     1.900     0.000     0.000     0.000     0.931     0.931   205.258   205.258     0.000     0.000     0.000     0.163     0.000     0.000   581.130  1000.000     0.000     0.000     0.000     0.005
FRSD    1 000010001    1    0 10 14 1983 .45702E+02     2.100     0.000     0.000     0.000     0.861     0.861   205.258   206.031     0.000     0.000     0.000     0.151     0.000     0.000   580.979  1000.000     0.000     0.000     0.000     0.005
FRSD    1 000010001    1    0 10 15 1983 .45702E+02     1.200     0.000     0.000     0.000     1.382     1.382   206.031   206.364     0.000     0.000     0.000     0.242     0.000     0.000   580.738  1000.000     0.000     0.000     0.000     0.005
FRSD    1 000010001    1    0 10 16 1983 .45702E+02     8.800     0.000     0.000     0.000     0.881     0.881   206.364   213.652     0.000     0.000     0.000     0.154     0.000     0.000   580.584  1000.000     0.000     0.000     0.000     0.008
FRSD    1 000010001    1    0 10 17 1983 .45702E+02     0.000     0.000     0.000     0.000     1.197     1.197   213.652   213.652     0.000     0.000     0.000     0.209     0.000     0.000   580.374  1000.000     0.000     0.000     0.000     0.007
FRSD    1 000010001    1    0 10 18 1983 .45702E+02     0.000     0.000     0.000     0.000     1.185     1.185   213.652   213.652     0.000     0.000     0.000     0.207     0.000     0.000   580.167  1000.000     0.000     0.000     0.000     0.006
FRSD    1 000010001    1    0 10 19 1983 .45702E+02     0.200     0.000     0.000     0.000     0.639     0.639   213.652   213.652     0.000     0.000     0.000     0.112     0.000     0.000   580.056  1000.000     0.000     0.000     0.000     0.006
FRSD    1 000010001    1    0 10 20 1983 .45702E+02     0.800     0.000     0.000     0.000     0.787     0.787   213.652   213.652     0.000     0.000     0.000     0.138     0.000     0.000   579.918  1000.000     0.000     0.000     0.000     0.005
FRSD    1 000010001    1    0 10 21 1983 .45702E+02     0.000     0.000     0.000     0.000     1.295     1.295   213.652   213.652     0.000     0.000     0.000     0.226     0.000     0.000   579.691  1000.000     0.000     0.000     0.000     0.005
FRSD    1 000010001    1    0 10 22 1983 .45702E+02     0.000     0.000     0.000     0.000     1.037     1.037   213.652   213.652     0.000     0.000     0.000     0.181     0.000     0.000   579.510  1000.000     0.000     0.000     0.000     0.004
FRSD    1 000010001    1    0 10 23 1983 .45702E+02     0.000     0.000     0.000     0.000     1.353     1.353   213.652   213.575     0.000     0.000     0.000     0.237     0.000     0.000   579.273  1000.000     0.000     0.000     0.000     0.004
FRSD    1 000010001    1    0 10 24 1983 .45702E+02     0.500     0.000     0.000     0.000     1.028     1.028   213.575   213.047     0.000     0.000     0.000     0.180     0.000     0.000   579.094  1000.000     0.000     0.000     0.000     0.004
FRSD    1 000010001    1    0 10 25 1983 .45702E+02     2.100     0.000     0.000     0.000     1.137     1.137   213.047   213.047     0.000     0.000     0.000     0.199     0.000     0.000   578.895  1000.000     0.000     0.000     0.000     0.003
FRSD    1 000010001    1    0 10 26 1983 .45702E+02     0.000     0.000     0.000     0.000     1.295     1.295   213.047   212.714     0.000     0.000     0.000     0.226     0.000     0.000   578.669  1000.000     0.000     0.000     0.000     0.003
FRSD    1 000010001    1    0 10 27 1983 .45702E+02     0.000     0.000     0.000     0.000     1.384     1.384   212.714   211.330     0.000     0.000     0.000     0.242     0.000     0.000   578.427  1000.000     0.000     0.000     0.000     0.003
FRSD    1 000010001    1    0 10 28 1983 .45702E+02     0.000     0.000     0.000     0.000     2.041     2.041   211.330   209.289     0.000     0.000     0.000     0.357     0.000     0.000   578.070  1000.000     0.000     0.000     0.000     0.002
FRSD    1 000010001    1    0 10 29 1983 .45702E+02     0.000     0.000     0.000     0.000     1.027     1.016   209.289   208.273     0.000     0.000     0.000     0.180     0.000     0.000   577.890  1000.000     0.000     0.000     0.000     0.002
FRSD    1 000010001    1    0 10 30 1983 .45702E+02     0.000     0.000     0.000     0.000     1.125     1.100   208.273   207.172     0.000     0.000     0.000     0.197     0.000     0.000   577.693  1000.000     0.000     0.000     0.000     0.002
FRSD    1 000010001    1    0 10 31 1983 .45702E+02     0.000     0.000     0.000     0.000     1.166     1.127   207.172   206.045     0.000     0.000     0.000     0.204     0.000     0.000   577.489  1000.000     0.000     0.000     0.000     0.002
FRSD    1 000010001    1    0 11  1 1983 .45702E+02     0.000     0.000     0.000     0.000     0.668     0.639   206.045   205.406     0.000     0.000     0.000     0.117     0.000     0.000   577.373  1000.000     0.000     0.000     0.000     0.002
FRSD    1 000010001    1    0 11  2 1983 .45702E+02     0.000     0.000     0.000     0.000     1.097     1.044   205.406   204.362     0.000     0.000     0.000     0.192     0.000     0.000   577.181  1000.000     0.000     0.000     0.000     0.002
FRSD    1 000010001    1    0 11  3 1983 .45702E+02     0.000     0.000     0.000     0.000     0.891     0.841   204.362   203.521     0.000     0.000     0.000     0.156     0.000     0.000   577.025  1000.000     0.000     0.000     0.000     0.001
FRSD    1 000010001    1    0 11  4 1983 .45702E+02     0.000     0.000     0.000     0.000     0.643     0.603   203.521   202.918     0.000     0.000     0.000     0.112     0.000     0.000   576.912  1000.000     0.000     0.000     0.000     0.001
FRSD    1 000010001    1    0 11  5 1983 .45702E+02     0.000     0.000     0.000     0.000     0.785     0.732   202.918   202.186     0.000     0.000     0.000     0.137     0.000     0.000   576.775  1000.000     0.000     0.000     0.000     0.001
FRSD    1 000010001    1    0 11  6 1983 .45702E+02     0.000     0.000     0.000     0.000     0.655     0.608   202.186   201.579     0.000     0.000     0.000     0.114     0.000     0.000   576.661  1000.000     0.000     0.000     0.000     0.001
FRSD    1 000010001    1    0 11  7 1983 .45702E+02     0.000     0.000     0.000     0.000     0.813     0.751   201.579   200.828     0.000     0.000     0.000     0.142     0.000     0.000   576.519  1000.000     0.000     0.000     0.000     0.001
FRSD    1 000010001    1    0 11  8 1983 .45702E+02     0.000     0.000     0.000     0.000     0.851     0.783   200.828   200.045     0.000     0.000     0.000     0.149     0.000     0.000   576.370  1000.000     0.000     0.000     0.000     0.001
FRSD    1 000010001    1    0 11  9 1983 .45702E+02     0.100     0.000     0.000     0.000     0.540     0.503   200.045   199.642     0.000     0.000     0.000     0.094     0.000     0.000   576.275  1000.000     0.000     0.000     0.000     0.001
FRSD    1 000010001    1    0 11 10 1983 .45702E+02     0.000     0.000     0.000     0.000     0.519     0.474   199.642   199.169     0.000     0.000     0.000     0.091     0.000     0.000   576.185  1000.000     0.000     0.000     0.000     0.001
[...]
FRSD    1 000010001    1    0 10 14 1985 .45702E+02     0.200     0.000     0.000     0.000     1.648     1.648   303.309   303.309     0.000     0.000     0.000     0.000     0.000     0.000   492.476  1000.000     0.000     0.000     0.000     0.005
FRSD    1 000010001    1    0 10 15 1985 .45702E+02     0.000     0.000     0.000     0.000     1.679     1.679   303.309   303.309     0.000     0.000     0.000     0.000     0.000     0.000   492.476  1000.000     0.000     0.000     0.000     0.005
FRSD    1 000010001    1    0 10 16 1985 .45702E+02     0.000     0.000     0.000     0.000     1.079     1.079   303.309   302.769     0.000     0.000     0.000     0.000     0.000     0.000   492.476  1000.000     0.000     0.000     0.000     0.004
FRSD    1 000010001    1    0 10 17 1985 .45702E+02     0.000     0.000     0.000     0.000     1.262     1.262   302.769   301.506     0.000     0.000     0.000     0.000     0.000     0.000   492.476  1000.000     0.000     0.000     0.000     0.004
FRSD    1 000010001    1    0 10 18 1985 .45702E+02     0.000     0.000     0.000     0.000     1.764     1.764   301.506   299.743     0.000     0.000     0.000     0.000     0.000     0.000   492.476  1000.000     0.000     0.000     0.000     0.004
FRSD    1 000010001    1    0 10 19 1985 .45702E+02     0.000     0.000     0.000     0.000     1.840     1.840   299.743   297.903     0.000     0.000     0.000     0.000     0.000     0.000   492.476  1000.000     0.000     0.000     0.000     0.003
FRSD    1 000010001    1    0 10 20 1985 .45702E+02     0.000     0.000     0.000     0.000     1.719     1.689   297.903   296.213     0.000     0.000     0.000     0.000     0.000     0.000   492.476  1000.000     0.000     0.000     0.000     0.003
FRSD    1 000010001    1    0 10 21 1985 .45702E+02     0.000     0.000     0.000     0.000     1.704     1.648   296.213   294.566     0.000     0.000     0.000     0.000     0.000     0.000   492.476  1000.000     0.000     0.000     0.000     0.003
FRSD    1 000010001    1    0 10 22 1985 .45702E+02     0.000     0.000     0.000     0.000     1.345     1.281   294.566   293.284     0.000     0.000     0.000     0.000     0.000     0.000   492.476  1000.000     0.000     0.000     0.000     0.002
FRSD    1 000010001    1    0 10 23 1985 .45702E+02     1.300     0.000     0.000     0.000     1.395     1.390   293.284   293.194     0.000     0.000     0.000     0.000     0.000     0.000   492.476  1000.000     0.000     0.000     0.000     0.002
FRSD    1 000010001    1    0 10 24 1985 .45702E+02     0.500     0.000     0.000     0.000     1.529     1.471   293.194   292.224     0.000     0.000     0.000     0.000     0.000     0.000   492.476  1000.000     0.000     0.000     0.000     0.002
FRSD    1 000010001    1    0 10 25 1985 .45702E+02     0.000     0.000     0.000     0.000     1.416     1.326   292.224   290.898     0.000     0.000     0.000     0.000     0.000     0.000   492.475  1000.000     0.000     0.000     0.000     0.002
FRSD    1 000010001    1    0 10 26 1985 .45702E+02     0.000     0.000     0.000     0.000     1.496     1.388   290.898   289.510     0.000     0.000     0.000     0.000     0.000     0.000   492.475  1000.000     0.000     0.000     0.000     0.002
FRSD    1 000010001    1    0 10 27 1985 .45702E+02     0.100     0.000     0.000     0.000     1.405     1.301   289.510   288.308     0.000     0.000     0.000     0.000     0.000     0.000   492.475  1000.000     0.000     0.000     0.000     0.002
FRSD    1 000010001    1    0 10 28 1985 .45702E+02     0.000     0.000     0.000     0.000     1.120     1.024   288.308   287.284     0.000     0.000     0.000     0.000     0.000     0.000   492.475  1000.000     0.000     0.000     0.000     0.001
FRSD    1 000010001    1    0 10 29 1985 .45702E+02     1.500     0.000     0.000     0.000     1.246     1.246   287.284   287.284     0.000     0.000     0.000     0.000     0.000     0.000   492.475  1000.000     0.000     0.000     0.000     0.001
FRSD    1 000010001    1    0 10 30 1985 .45702E+02     0.300     0.000     0.000     0.000     1.147     1.093   287.284   286.745     0.000     0.000     0.000     0.000     0.000     0.000   492.475  1000.000     0.000     0.000     0.000     0.001
FRSD    1 000010001    1    0 10 31 1985 .45702E+02     0.000     0.000     0.000     0.000     1.134     1.028   286.745   285.716     0.000     0.000     0.000     0.000     0.000     0.000   492.475  1000.000     0.000     0.000     0.000     0.001
FRSD    1 000010001    1    0 11  1 1985 .45702E+02     0.000     0.000     0.000     0.000     1.023     0.923   285.716   284.793     0.000     0.000     0.000     0.000     0.000     0.000   492.475  1000.000     0.000     0.000     0.000     0.001
FRSD    1 000010001    1    0 11  2 1985 .45702E+02     0.000     0.000     0.000     0.000     0.883     0.793   284.793   284.000     0.000     0.000     0.000     0.000     0.000     0.000   492.475  1000.000     0.000     0.000     0.000     0.001
FRSD    1 000010001    1    0 11  3 1985 .45702E+02     0.000     0.000     0.000     0.000     0.860     0.769   284.000   283.231     0.000     0.000     0.000     0.000     0.000     0.000   492.475  1000.000     0.000     0.000     0.000     0.001
FRSD    1 000010001    1    0 11  4 1985 .45702E+02     0.000     0.000     0.000     0.000     0.877     0.783   283.231   282.448     0.000     0.000     0.000     0.000     0.000     0.000   492.475  1000.000     0.000     0.000     0.000     0.001
FRSD    1 000010001    1    0 11  5 1985 .45702E+02     0.000     0.000     0.000     0.000     0.939     0.835   282.448   281.613     0.000     0.000     0.000     0.000     0.000     0.000   492.475  1000.000     0.000     0.000     0.000     0.001
FRSD    1 000010001    1    0 11  6 1985 .45702E+02     4.600     0.000     0.000     0.000     0.935     0.935   281.613   281.613     0.000     0.000     0.000     0.000     0.000     0.000   492.475  1000.000     0.000     0.000     0.000     0.001
FRSD    1 000010001    1    0 11  7 1985 .45702E+02     0.000     0.000     0.000     0.000     0.618     0.618   281.613   281.613     0.000     0.000     0.000     0.000     0.000     0.000   492.475  1000.000     0.000     0.000     0.000     0.001
FRSD    1 000010001    1    0 11  8 1985 .45702E+02     0.000     0.000     0.000     0.000     0.416     0.416   281.613   281.613     0.000     0.000     0.000     0.000     0.000     0.000   492.475  1000.000     0.000     0.000     0.000     0.000
FRSD    1 000010001    1    0 11  9 1985 .45702E+02     0.000     0.000     0.000     0.000     0.348     0.348   281.613   281.613     0.000     0.000     0.000     0.000     0.000     0.000   492.475  1000.000     0.000     0.000     0.000     0.000
FRSD    1 000010001    1    0 11 10 1985 .45702E+02     0.000     0.000     0.000     0.000     0.332     0.332   281.613   281.613     0.000     0.000     0.000     0.000     0.000     0.000   492.475  1000.000     0.000     0.000     0.000     0.000
FRSD    1 000010001    1    0 11 11 1985 .45702E+02     0.000     0.000     0.000     0.000     0.319     0.319   281.613   281.613     0.000     0.000     0.000     0.000     0.000     0.000   492.475  1000.000     0.000     0.000     0.000     0.000
FRSD    1 000010001    1    0 11 12 1985 .45702E+02     1.300     0.000     0.000     0.000     0.339     0.339   281.613   281.613     0.000     0.000     0.000     0.000     0.000     0.000   492.474  1000.000     0.000     0.000     0.000     0.000
FRSD    1 000010001    1    0 11 13 1985 .45702E+02     0.000     0.000     0.000     0.000     0.395     0.395   281.613   281.613     0.000     0.000     0.000     0.000     0.000     0.000   492.474  1000.000     0.000     0.000     0.000     0.000
FRSD    1 000010001    1    0 11 14 1985 .45702E+02     0.000     0.000     0.000     0.000     0.446     0.446   281.613   281.613     0.000     0.000     0.000     0.000     0.000     0.000   492.474  1000.000     0.000     0.000     0.000     0.000
FRSD    1 000010001    1    0 11 15 1985 .45702E+02     0.000     0.000     0.000     0.000     0.518     0.518   281.613   281.613     0.000     0.000     0.000     0.000     0.000     0.000   492.474  1000.000     0.000     0.000     0.000     0.000
FRSD    1 000010001    1    0 11 16 1985 .45702E+02     1.000     0.000     0.000     0.000     0.548     0.548   281.613   281.613     0.000     0.000     0.000     0.000     0.000     0.000   492.474  1000.000     0.000     0.000     0.000     0.000
FRSD    1 000010001    1    0 11 17 1985 .45702E+02     0.100     0.000     0.000     0.000     0.445     0.445   281.613   281.613     0.000     0.000     0.000     0.000     0.000     0.000   492.474  1000.000     0.000     0.000     0.000     0.000
FRSD    1 000010001    1    0 11 18 1985 .45702E+02     1.700     0.000     0.000     0.000     0.376     0.376   281.613   281.613     0.000     0.000     0.000     0.000     0.000     0.000   492.474  1000.000     0.000     0.000     0.000     0.000
FRSD    1 000010001    1    0 11 19 1985 .45702E+02    14.900    12.163     0.000     0.000     0.361     0.361   281.613   281.613     0.000     0.000     0.000     0.000     0.000     0.000   492.474  1000.000     0.000     0.000     0.000     0.000
FRSD    1 000010001    1    0 11 20 1985 .45702E+02     1.200     0.839     0.000     0.000     0.188     0.188   281.613   281.613     0.000     0.000     0.000     0.000     0.000     0.000   492.474  1000.000     0.000     0.000     0.000     0.000
FRSD    1 000010001    1    0 11 21 1985 .45702E+02     0.100     0.000     0.000     0.000     0.035     0.035   281.613   281.613     0.000     0.000     0.000     0.000     0.000     0.000   492.474  1000.000     0.000     0.000     0.000     0.000
FRSD    1 000010001    1    0 11 22 1985 .45702E+02     2.200     2.077     0.000     0.000     0.171     0.171   281.613   281.613     0.000     0.000     0.000     0.000     0.000     0.000   492.474  1000.000     0.000     0.000     0.000     0.000
FRSD    1 000010001    1    0 11 23 1985 .45702E+02     1.200     1.029     0.000     0.000     0.190     0.190   281.613   281.613     0.000     0.000     0.000     0.000     0.000     0.000   492.474  1000.000     0.000     0.000     0.000     0.000
FRSD    1 000010001    1    0 11 24 1985 .45702E+02     0.800     0.610     0.000     0.000     0.000     0.000   281.613   281.613     0.000     0.000     0.000     0.000     0.000     0.000   492.474  1000.000     0.000     0.000     0.000     0.000
FRSD    1 000010001    1    0 11 25 1985 .45702E+02     2.300     2.300     0.000     0.000     0.000     0.000   281.613   281.613     0.000     0.000     0.000     0.000     0.000     0.000   492.474  1000.000     0.000     0.000     0.000     0.000
FRSD    1 000010001    1    0 11 26 1985 .45702E+02    10.400    10.400     0.000     0.000     0.094     0.094   281.613   281.613     0.000     0.000     0.000     0.000     0.000     0.000   492.474  1000.000     0.000     0.000     0.000     0.000
FRSD    1 000010001    1    0 11 27 1985 .45702E+02     0.500     0.406     0.000     0.000     0.000     0.000   281.613   281.613     0.000     0.000     0.000     0.000     0.000     0.000   492.474  1000.000     0.000     0.000     0.000     0.000
FRSD    1 000010001    1    0 11 28 1985 .45702E+02     0.000     0.000     0.000     0.000     0.000     0.000   281.613   281.613     0.000     0.000     0.000     0.000     0.000     0.000   492.474  1000.000     0.000     0.000     0.000     0.000
FRSD    1 000010001    1    0 11 29 1985 .45702E+02     0.500     0.500     0.000     0.000     0.000     0.000   281.613   281.613     0.000     0.000     0.000     0.000     0.000     0.000   492.474  1000.000     0.000     0.000     0.000     0.000
FRSD    1 000010001    1    0 11 30 1985 .45702E+02     3.200     3.200     0.000     0.000     0.000     0.000   281.613   281.613     0.000     0.000     0.000     0.000     0.000     0.000   492.474  1000.000     0.000     0.000     0.000     0.000
FRSD    1 000010001    1    0 12  1 1985 .45702E+02     3.300     3.300     0.000     0.000     0.000     0.000   281.613   281.613     0.000     0.000     0.000     0.000     0.000     0.000   492.473  1000.000     0.000     0.000     0.000     0.000
FRSD    1 000010001    1    0 12  2 1985 .45702E+02     1.300     1.300     0.000     0.000     0.000     0.000   281.613   281.613     0.000     0.000     0.000     0.000     0.000     0.000   492.473  1000.000     0.000     0.000     0.000     0.000
FRSD    1 000010001    1    0 12  3 1985 .45702E+02     0.000     0.000     0.000     0.000     0.000     0.000   281.613   281.613     0.000     0.000     0.000     0.000     0.000     0.000   492.473  1000.000     0.000     0.000     0.000     0.000
FRSD    1 000010001    1    0 12  4 1985 .45702E+02     2.100     2.100     0.000     0.000     0.000     0.000   281.613   281.613     0.000     0.000     0.000     0.000     0.000     0.000   492.473  1000.000     0.000     0.000     0.000     0.000
FRSD    1 000010001    1    0 12  5 1985 .45702E+02     0.000     0.000     0.000     0.000     0.116     0.116   281.613   281.613     0.000     0.000     0.000     0.000     0.000     0.000   492.473  1000.000     0.000     0.000     0.000     0.000
FRSD    1 000010001    1    0 12  6 1985 .45702E+02     0.000     0.000     0.000     0.000     0.010     0.010   281.613   281.613     0.000     0.000     0.000     0.000     0.000     0.000   492.473  1000.000     0.000     0.000     0.000     0.000
FRSD    1 000010001    1    0 12  7 1985 .45702E+02     0.000     0.000     0.000     0.000     0.136     0.136   281.613   281.613     0.000     0.000     0.000     0.000     0.000     0.000   492.473  1000.000     0.000     0.000     0.000     0.000
FRSD    1 000010001    1    0 12  8 1985 .45702E+02     0.200     0.000     0.000     0.000     0.185     0.185   281.613   281.613     0.000     0.000     0.000     0.000     0.000     0.000   492.473  1000.000     0.000     0.000     0.000     0.000
FRSD    1 000010001    1    0 12  9 1985 .45702E+02     0.400     0.153     0.000     0.000     0.187     0.187   281.613   281.613     0.000     0.000     0.000     0.000     0.000     0.000   492.473  1000.000     0.000     0.000     0.000     0.000
FRSD    1 000010001    1    0 12 10 1985 .45702E+02     0.100     0.000     0.000     0.000     0.160     0.160   281.613   281.613     0.000     0.000     0.000     0.000     0.000     0.000   492.473  1000.000     0.000     0.000     0.000     0.000
FRSD    1 000010001    1    0 12 11 1985 .45702E+02     0.000     0.000     0.000     0.000     0.089     0.089   281.613   281.613     0.000     0.000     0.000     0.000     0.000     0.000   492.473  1000.000     0.000     0.000     0.000     0.000
FRSD    1 000010001    1    0 12 12 1985 .45702E+02     0.000     0.000     0.000     0.000     0.000     0.000   281.613   281.613     0.000     0.000     0.000     0.000     0.000     0.000   492.473  1000.000     0.000     0.000     0.000     0.000
FRSD    1 000010001    1    0 12 13 1985 .45702E+02     0.000     0.000     0.000     0.000     0.000     0.000   281.613   281.613     0.000     0.000     0.000     0.000     0.000     0.000   492.473  1000.000     0.000     0.000     0.000     0.000
FRSD    1 000010001    1    0 12 14 1985 .45702E+02     0.300     0.000     0.000     0.000     0.000     0.000   281.613   281.613     0.000     0.000     0.000     0.000     0.000     0.000   492.473  1000.000     0.000     0.000     0.000     0.000
FRSD    1 000010001    1    0 12 15 1985 .45702E+02     1.100     1.064     0.000     0.000     0.000     0.000   281.613   281.613     0.000     0.000     0.000     0.000     0.000     0.000   492.473  1000.000     0.000     0.000     0.000     0.000
FRSD    1 000010001    1    0 12 16 1985 .45702E+02     0.000     0.000     0.000     0.000     0.000     0.000   281.613   281.613     0.000     0.000     0.000     0.000     0.000     0.000   492.473  1000.000     0.000     0.000     0.000     0.000
FRSD    1 000010001    1    0 12 17 1985 .45702E+02     0.000     0.000     0.000     0.000     0.000     0.000   281.613   281.613     0.000     0.000     0.000     0.000     0.000     0.000   492.473  1000.000     0.000     0.000     0.000     0.000
FRSD    1 000010001    1    0 12 18 1985 .45702E+02     0.000     0.000     0.000     0.000     0.000     0.000   281.613   281.613     0.000     0.000     0.000     0.000     0.000     0.000   492.473  1000.000     0.000     0.000     0.000     0.000
FRSD    1 000010001    1    0 12 19 1985 .45702E+02     0.000     0.000     0.000     0.000     0.000     0.000   281.613   281.613     0.000     0.000     0.000     0.000     0.000     0.000   492.473  1000.000     0.000     0.000     0.000     0.000
FRSD    1 000010001    1    0 12 20 1985 .45702E+02     0.000     0.000     0.000     0.000     0.000     0.000   281.613   281.613     0.000     0.000     0.000     0.000     0.000     0.000   492.473  1000.000     0.000     0.000     0.000     0.000
FRSD    1 000010001    1    0 12 21 1985 .45702E+02     0.000     0.000     0.000     0.000     0.000     0.000   281.613   281.613     0.000     0.000     0.000     0.000     0.000     0.000   492.472  1000.000     0.000     0.000     0.000     0.000
FRSD    1 000010001    1    0 12 22 1985 .45702E+02     0.000     0.000     0.000     0.000     0.288     0.288   281.613   281.613     0.000     0.000     0.000     0.000     0.000     0.000   492.472  1000.000     0.000     0.000     0.000     0.000
FRSD    1 000010001    1    0 12 23 1985 .45702E+02     2.900     2.612     0.000     0.000     0.347     0.347   281.613   281.613     0.000     0.000     0.000     0.000     0.000     0.000   492.472  1000.000     0.000     0.000     0.000     0.000
FRSD    1 000010001    1    0 12 24 1985 .45702E+02     0.100     0.000     0.000     0.000     0.000     0.000   281.613   281.613     0.000     0.000     0.000     0.000     0.000     0.000   492.472  1000.000     0.000     0.000     0.000     0.000
FRSD    1 000010001    1    0 12 25 1985 .45702E+02     0.000     0.000     0.000     0.000     0.000     0.000   281.613   281.613     0.000     0.000     0.000     0.000     0.000     0.000   492.472  1000.000     0.000     0.000     0.000     0.000
FRSD    1 000010001    1    0 12 26 1985 .45702E+02     3.000     2.753     0.000     0.000     0.085     0.085   281.613   281.613     0.000     0.000     0.000     0.000     0.000     0.000   492.472  1000.000     0.000     0.000     0.000     0.000
FRSD    1 000010001    1    0 12 27 1985 .45702E+02     0.400     0.315     0.000     0.000     0.082     0.082   281.613   281.613     0.000     0.000     0.000     0.000     0.000     0.000   492.472  1000.000     0.000     0.000     0.000     0.000
FRSD    1 000010001    1    0 12 28 1985 .45702E+02     0.000     0.000     0.000     0.000     0.001     0.001   281.613   281.613     0.000     0.000     0.000     0.000     0.000     0.000   492.472  1000.000     0.000     0.000     0.000     0.000
FRSD    1 000010001    1    0 12 29 1985 .45702E+02     0.000     0.000     0.000     0.000     0.085     0.085   281.613   281.613     0.000     0.000     0.000     0.000     0.000     0.000   492.472  1000.000     0.000     0.000     0.000     0.000
FRSD    1 000010001    1    0 12 30 1985 .45702E+02     0.100     0.000     0.000     0.000     0.117     0.117   281.613   281.613     0.000     0.000     0.000     0.000     0.000     0.000   492.472  1000.000     0.000     0.000     0.000     0.000
FRSD    1 000010001    1    0 12 31 1985 .45702E+02     0.000     0.000     0.000     0.000     0.208     0.208   281.613   281.613     0.000     0.000     0.000     0.000     0.000     0.000   492.472  1000.000     0.000     0.000     0.000     0.000
