1
    SWAT Sep 7    VER 2018/Rev 670                                                                       0/ 0/   0      0: 0: 0

    General Input/Output section (file.cio):                                        
    11/30/2022 2:01:14 PM HAWQS Interface                                           
                                                                                    


       SUB      GIS  MO DA  YR   AREAkm2  PRECIPmm SNOMELTmm     PETmm      ETmm      SWmm    PERCmm    SURQmm    GW_Qmm    WYLDmm  SYLDt/ha ORGNkg/ha ORGPkg/haNSURQkg/ha SOLPkg/ha SEDPkg/ha LAT Q(mm)LATNO3kg/hGWNO3kg/haCHOLAmic/LCBODU mg/L DOXQ mg/L TNO3kg/ha   QTILEmm TVAPkg/ha
BIGSUB    1        0  1  1 1983 .45201E+04 0.100E+00 0.000E+00 0.243E+00 0.195E+00 0.130E+03 0.458E-06 0.232E-02 0.000E+00 0.248E-02 0.116E-09 0.140E-09 0.140E-09 0.236E-06 0.274E-06 0.280E-09 0.157E-03 0.490E-06 0.100E-11 .94283E-08 0.000E+00 0.356E-03 0.000E+00 0.000E+00 0.000E+00
BIGSUB    2        0  1  1 1983 .29418E+04 0.000E+00 0.000E+00 0.249E+00 0.203E+00 0.144E+03 0.575E-04 0.148E-03 0.000E+00 0.445E-03 0.416E-12 0.124E-09 0.124E-09 0.172E-07 0.175E-07 0.248E-09 0.297E-03 0.631E-06 0.100E-11 .59671E-09 0.000E+00 0.622E-04 0.000E+00 0.000E+00 0.000E+00
BIGSUB    3        0  1  1 1983 .52470E+04 0.100E+00 0.000E+00 0.235E+00 0.174E+00 0.176E+03 0.169E-04 0.592E-02 0.000E+00 0.664E-02 0.512E-09 0.600E-09 0.129E-09 0.692E-06 0.692E-06 0.335E-09 0.687E-03 0.224E-05 0.100E-11 .27654E-07 0.000E+00 0.944E-03 0.000E+00 0.345E-07 0.000E+00
BIGSUB    4        0  1  1 1983 .43680E+04 0.000E+00 0.000E+00 0.279E+00 0.211E+00 0.152E+03 0.143E-02 0.327E-02 0.000E+00 0.503E-02 0.147E-09 0.130E-09 0.121E-09 0.335E-06 0.384E-06 0.251E-09 0.175E-02 0.101E-04 0.100E-11 .13196E-07 0.000E+00 0.712E-03 0.000E+00 0.105E-05 0.000E+00
BIGSUB    5        0  1  1 1983 .19178E+04 0.000E+00 0.000E+00 0.256E+00 0.217E+00 0.111E+03 0.592E-03 0.136E-04 0.000E+00 0.403E-03 0.745E-13 0.168E-09 0.168E-09 0.137E-08 0.171E-08 0.336E-09 0.390E-03 0.117E-05 0.100E-11 .92479E-11 0.000E+00 0.555E-04 0.000E+00 0.000E+00 0.000E+00
BIGSUB    6        0  1  1 1983 .49397E+04 0.000E+00 0.000E+00 0.264E+00 0.208E+00 0.108E+03 0.143E-01 0.272E-03 0.000E+00 0.668E-02 0.252E-11 0.204E-09 0.204E-09 0.395E-07 0.325E-07 0.407E-09 0.640E-02 0.671E-05 0.100E-11 .11238E-08 0.000E+00 0.950E-03 0.000E+00 0.000E+00 0.000E+00
BIGSUB    7        0  1  1 1983 .23151E+04 0.000E+00 0.000E+00 0.286E+00 0.168E+00 0.151E+03 0.105E-02 0.152E-04 0.000E+00 0.593E-02 0.602E-13 0.195E-09 0.195E-09 0.271E-08 0.207E-08 0.391E-09 0.591E-02 0.786E-05 0.100E-11 .14202E-10 0.000E+00 0.842E-03 0.000E+00 0.000E+00 0.000E+00
BIGSUB    8        0  1  1 1983 .22261E+04 0.000E+00 0.000E+00 0.300E+00 0.193E+00 0.161E+03 0.149E-01 0.788E-04 0.000E+00 0.518E-02 0.188E-12 0.184E-09 0.184E-09 0.171E-07 0.112E-07 0.368E-09 0.510E-02 0.546E-05 0.100E-11 .20643E-09 0.000E+00 0.733E-03 0.000E+00 0.000E+00 0.000E+00
BIGSUB    1        0  1  2 1983 .45201E+04 0.000E+00 0.000E+00 0.168E+00 0.116E+00 0.130E+03 0.457E-06 0.214E-02 0.000E+00 0.229E-02 0.986E-10 0.140E-09 0.140E-09 0.218E-06 0.253E-06 0.280E-09 0.150E-03 0.467E-06 0.100E-11 .87086E-08 0.000E+00 0.334E-03 0.000E+00 0.000E+00 0.000E+00
BIGSUB    2        0  1  2 1983 .29418E+04 0.000E+00 0.000E+00 0.174E+00 0.142E+00 0.144E+03 0.572E-04 0.125E-03 0.000E+00 0.412E-03 0.300E-12 0.124E-09 0.124E-09 0.144E-07 0.147E-07 0.248E-09 0.287E-03 0.619E-06 0.100E-11 .50605E-09 0.000E+00 0.586E-04 0.000E+00 0.000E+00 0.000E+00
BIGSUB    3        0  1  2 1983 .52470E+04 0.000E+00 0.000E+00 0.194E+00 0.144E+00 0.176E+03 0.390E-05 0.558E-02 0.000E+00 0.621E-02 0.454E-09 0.468E-09 0.112E-09 0.653E-06 0.653E-06 0.310E-09 0.606E-03 0.209E-05 0.100E-11 .26045E-07 0.000E+00 0.904E-03 0.000E+00 0.000E+00 0.000E+00
BIGSUB    4        0  1  2 1983 .43680E+04 0.000E+00 0.000E+00 0.254E+00 0.193E+00 0.152E+03 0.129E-02 0.302E-02 0.000E+00 0.465E-02 0.125E-09 0.128E-09 0.121E-09 0.308E-06 0.354E-06 0.249E-09 0.162E-02 0.971E-05 0.100E-11 .12160E-07 0.000E+00 0.676E-03 0.000E+00 0.816E-06 0.000E+00
BIGSUB    5        0  1  2 1983 .19178E+04 0.000E+00 0.000E+00 0.207E+00 0.176E+00 0.111E+03 0.589E-03 0.109E-04 0.000E+00 0.384E-03 0.733E-13 0.168E-09 0.168E-09 0.113E-08 0.140E-08 0.336E-09 0.373E-03 0.115E-05 0.100E-11 .75108E-11 0.000E+00 0.543E-04 0.000E+00 0.000E+00 0.000E+00
BIGSUB    6        0  1  2 1983 .49397E+04 0.000E+00 0.000E+00 0.219E+00 0.173E+00 0.108E+03 0.140E-01 0.239E-03 0.000E+00 0.641E-02 0.194E-11 0.204E-09 0.204E-09 0.346E-07 0.285E-07 0.407E-09 0.617E-02 0.644E-05 0.100E-11 .95189E-09 0.000E+00 0.934E-03 0.000E+00 0.000E+00 0.000E+00
BIGSUB    7        0  1  2 1983 .23151E+04 0.000E+00 0.000E+00 0.253E+00 0.149E+00 0.151E+03 0.105E-02 0.121E-04 0.000E+00 0.564E-02 0.595E-13 0.195E-09 0.195E-09 0.219E-08 0.168E-08 0.391E-09 0.563E-02 0.741E-05 0.100E-11 .11417E-10 0.000E+00 0.821E-03 0.000E+00 0.000E+00 0.000E+00
BIGSUB    8        0  1  2 1983 .22261E+04 0.000E+00 0.000E+00 0.276E+00 0.177E+00 0.161E+03 0.148E-01 0.647E-04 0.000E+00 0.510E-02 0.143E-12 0.184E-09 0.184E-09 0.141E-07 0.923E-08 0.368E-09 0.504E-02 0.538E-05 0.100E-11 .14228E-09 0.000E+00 0.743E-03 0.000E+00 0.000E+00 0.000E+00
BIGSUB    1        0  1  3 1983 .45201E+04 0.000E+00 0.000E+00 0.126E+00 0.820E-01 0.130E+03 0.457E-06 0.198E-02 0.000E+00 0.213E-02 0.841E-10 0.140E-09 0.140E-09 0.201E-06 0.234E-06 0.280E-09 0.144E-03 0.451E-06 0.100E-11 .80466E-08 0.000E+00 0.310E-03 0.000E+00 0.000E+00 0.000E+00
BIGSUB    2        0  1  3 1983 .29418E+04 0.000E+00 0.000E+00 0.133E+00 0.889E-01 0.143E+03 0.569E-04 0.105E-03 0.000E+00 0.383E-03 0.220E-12 0.124E-09 0.124E-09 0.122E-07 0.124E-07 0.248E-09 0.278E-03 0.608E-06 0.100E-11 .42901E-09 0.000E+00 0.547E-04 0.000E+00 0.000E+00 0.000E+00
BIGSUB    3        0  1  3 1983 .52470E+04 0.000E+00 0.000E+00 0.112E+00 0.828E-01 0.176E+03 0.387E-05 0.527E-02 0.000E+00 0.583E-02 0.403E-09 0.371E-09 0.996E-10 0.616E-06 0.616E-06 0.290E-09 0.543E-03 0.197E-05 0.100E-11 .24578E-07 0.000E+00 0.848E-03 0.000E+00 0.000E+00 0.000E+00
BIGSUB    4        0  1  3 1983 .43680E+04 0.000E+00 0.000E+00 0.158E+00 0.120E+00 0.152E+03 0.832E-03 0.279E-02 0.000E+00 0.424E-02 0.106E-09 0.127E-09 0.121E-09 0.284E-06 0.326E-06 0.248E-09 0.145E-02 0.891E-05 0.100E-11 .11207E-07 0.000E+00 0.617E-03 0.000E+00 0.635E-06 0.000E+00
BIGSUB    5        0  1  3 1983 .19178E+04 0.000E+00 0.000E+00 0.154E+00 0.131E+00 0.111E+03 0.586E-03 0.871E-05 0.000E+00 0.368E-03 0.725E-13 0.168E-09 0.168E-09 0.934E-09 0.115E-08 0.336E-09 0.359E-03 0.113E-05 0.100E-11 .61024E-11 0.000E+00 0.523E-04 0.000E+00 0.000E+00 0.000E+00
BIGSUB    6        0  1  3 1983 .49397E+04 0.200E+00 0.000E+00 0.148E+00 0.117E+00 0.108E+03 0.253E-02 0.210E-03 0.000E+00 0.606E-02 0.150E-11 0.204E-09 0.204E-09 0.303E-07 0.250E-07 0.407E-09 0.586E-02 0.602E-05 0.100E-11 .86091E-09 0.000E+00 0.884E-03 0.000E+00 0.000E+00 0.000E+00
BIGSUB    7        0  1  3 1983 .23151E+04 0.100E+00 0.000E+00 0.157E+00 0.922E-01 0.151E+03 0.953E-03 0.964E-05 0.000E+00 0.540E-02 0.592E-13 0.195E-09 0.195E-09 0.177E-08 0.137E-08 0.391E-09 0.539E-02 0.717E-05 0.100E-11 .73131E-11 0.000E+00 0.785E-03 0.000E+00 0.000E+00 0.000E+00
BIGSUB    8        0  1  3 1983 .22261E+04 0.000E+00 0.000E+00 0.171E+00 0.110E+00 0.161E+03 0.146E-01 0.532E-04 0.000E+00 0.502E-02 0.114E-12 0.184E-09 0.184E-09 0.116E-07 0.762E-08 0.368E-09 0.497E-02 0.530E-05 0.100E-11 .96388E-10 0.000E+00 0.731E-03 0.000E+00 0.000E+00 0.000E+00
BIGSUB    1        0  1  4 1983 .45201E+04 0.100E+01 0.000E+00 0.262E+00 0.210E+00 0.130E+03 0.457E-06 0.183E-02 0.000E+00 0.197E-02 0.718E-10 0.140E-09 0.140E-09 0.186E-06 0.216E-06 0.280E-09 0.138E-03 0.435E-06 0.100E-11 .74374E-08 0.000E+00 0.287E-03 0.000E+00 0.000E+00 0.000E+00
BIGSUB    2        0  1  4 1983 .29418E+04 0.800E+00 0.000E+00 0.278E+00 0.226E+00 0.143E+03 0.565E-04 0.881E-04 0.000E+00 0.359E-03 0.165E-12 0.124E-09 0.124E-09 0.102E-07 0.104E-07 0.248E-09 0.271E-03 0.597E-06 0.100E-11 .36356E-09 0.000E+00 0.514E-04 0.000E+00 0.000E+00 0.000E+00
BIGSUB    3        0  1  4 1983 .52470E+04 0.900E+00 0.000E+00 0.254E+00 0.189E+00 0.176E+03 0.387E-05 0.497E-02 0.000E+00 0.548E-02 0.358E-09 0.299E-09 0.904E-10 0.581E-06 0.581E-06 0.273E-09 0.493E-03 0.187E-05 0.100E-11 .23195E-07 0.000E+00 0.797E-03 0.000E+00 0.000E+00 0.000E+00
BIGSUB    4        0  1  4 1983 .43680E+04 0.400E+00 0.000E+00 0.287E+00 0.218E+00 0.152E+03 0.771E-03 0.257E-02 0.000E+00 0.389E-02 0.905E-10 0.125E-09 0.121E-09 0.261E-06 0.301E-06 0.246E-09 0.132E-02 0.826E-05 0.100E-11 .10330E-07 0.000E+00 0.566E-03 0.000E+00 0.495E-06 0.000E+00
BIGSUB    5        0  1  4 1983 .19178E+04 0.400E+00 0.000E+00 0.321E+00 0.272E+00 0.111E+03 0.583E-03 0.699E-05 0.000E+00 0.354E-03 0.721E-13 0.168E-09 0.168E-09 0.779E-09 0.953E-09 0.336E-09 0.347E-03 0.111E-05 0.100E-11 .28888E-18 0.000E+00 0.483E-04 0.000E+00 0.000E+00 0.000E+00
BIGSUB    6        0  1  4 1983 .49397E+04 0.400E+00 0.000E+00 0.297E+00 0.234E+00 0.108E+03 0.663E-02 0.184E-03 0.000E+00 0.579E-02 0.116E-11 0.204E-09 0.204E-09 0.265E-07 0.220E-07 0.407E-09 0.561E-02 0.569E-05 0.100E-11 .77056E-09 0.000E+00 0.844E-03 0.000E+00 0.000E+00 0.000E+00
BIGSUB    7        0  1  4 1983 .23151E+04 0.700E+00 0.000E+00 0.306E+00 0.179E+00 0.151E+03 0.104E-02 0.770E-05 0.000E+00 0.520E-02 0.591E-13 0.195E-09 0.195E-09 0.144E-08 0.113E-08 0.391E-09 0.520E-02 0.697E-05 0.100E-11 .99284E-18 0.000E+00 0.755E-03 0.000E+00 0.000E+00 0.000E+00
BIGSUB    8        0  1  4 1983 .22261E+04 0.800E+00 0.000E+00 0.315E+00 0.202E+00 0.161E+03 0.146E-01 0.438E-04 0.000E+00 0.494E-02 0.951E-13 0.184E-09 0.184E-09 0.960E-08 0.629E-08 0.368E-09 0.489E-02 0.521E-05 0.100E-11 .64183E-10 0.000E+00 0.718E-03 0.000E+00 0.000E+00 0.000E+00
BIGSUB    1        0  1  5 1983 .45201E+04 0.000E+00 0.000E+00 0.314E+00 0.252E+00 0.129E+03 0.457E-06 0.170E-02 0.000E+00 0.183E-02 0.613E-10 0.140E-09 0.140E-09 0.172E-06 0.200E-06 0.280E-09 0.132E-03 0.420E-06 0.100E-11 .68762E-08 0.000E+00 0.266E-03 0.000E+00 0.000E+00 0.000E+00
BIGSUB    2        0  1  5 1983 .29418E+04 0.000E+00 0.000E+00 0.335E+00 0.273E+00 0.143E+03 0.562E-04 0.741E-04 0.000E+00 0.338E-03 0.128E-12 0.124E-09 0.124E-09 0.862E-08 0.881E-08 0.248E-09 0.264E-03 0.587E-06 0.100E-11 .30800E-09 0.000E+00 0.483E-04 0.000E+00 0.000E+00 0.000E+00
BIGSUB    3        0  1  5 1983 .52470E+04 0.000E+00 0.000E+00 0.341E+00 0.253E+00 0.176E+03 0.388E-05 0.469E-02 0.000E+00 0.515E-02 0.317E-09 0.246E-09 0.835E-10 0.548E-06 0.549E-06 0.259E-09 0.453E-03 0.178E-05 0.100E-11 .21889E-07 0.000E+00 0.750E-03 0.000E+00 0.000E+00 0.000E+00
BIGSUB    4        0  1  5 1983 .43680E+04 0.000E+00 0.000E+00 0.393E+00 0.288E+00 0.152E+03 0.826E-03 0.237E-02 0.000E+00 0.359E-02 0.769E-10 0.124E-09 0.121E-09 0.240E-06 0.278E-06 0.245E-09 0.122E-02 0.774E-05 0.100E-11 .95236E-08 0.000E+00 0.522E-03 0.000E+00 0.385E-06 0.000E+00
BIGSUB    5        0  1  5 1983 .19178E+04 0.000E+00 0.000E+00 0.384E+00 0.322E+00 0.111E+03 0.581E-03 0.562E-05 0.000E+00 0.343E-03 0.718E-13 0.168E-09 0.168E-09 0.655E-09 0.794E-09 0.336E-09 0.337E-03 0.109E-05 0.100E-11 .30562E-18 0.000E+00 0.473E-04 0.000E+00 0.000E+00 0.000E+00
BIGSUB    6        0  1  5 1983 .49397E+04 0.000E+00 0.000E+00 0.355E+00 0.280E+00 0.108E+03 0.680E-02 0.162E-03 0.000E+00 0.559E-02 0.907E-12 0.204E-09 0.204E-09 0.232E-07 0.193E-07 0.407E-09 0.543E-02 0.546E-05 0.100E-11 .69007E-09 0.000E+00 0.815E-03 0.000E+00 0.000E+00 0.000E+00
BIGSUB    7        0  1  5 1983 .23151E+04 0.000E+00 0.000E+00 0.375E+00 0.219E+00 0.151E+03 0.104E-02 0.616E-05 0.000E+00 0.504E-02 0.591E-13 0.195E-09 0.195E-09 0.118E-08 0.931E-09 0.391E-09 0.504E-02 0.679E-05 0.100E-11 .10508E-17 0.000E+00 0.732E-03 0.000E+00 0.000E+00 0.000E+00
BIGSUB    8        0  1  5 1983 .22261E+04 0.000E+00 0.000E+00 0.398E+00 0.255E+00 0.161E+03 0.146E-01 0.360E-04 0.000E+00 0.486E-02 0.828E-13 0.184E-09 0.184E-09 0.792E-08 0.521E-08 0.368E-09 0.483E-02 0.513E-05 0.100E-11 .42028E-10 0.000E+00 0.708E-03 0.000E+00 0.000E+00 0.000E+00
BIGSUB    1        0  1  6 1983 .45201E+04 0.520E+01 0.000E+00 0.304E+00 0.244E+00 0.129E+03 0.457E-06 0.157E-02 0.000E+00 0.170E-02 0.523E-10 0.140E-09 0.140E-09 0.159E-06 0.185E-06 0.280E-09 0.127E-03 0.405E-06 0.100E-11 .63590E-08 0.000E+00 0.247E-03 0.000E+00 0.000E+00 0.000E+00
BIGSUB    2        0  1  6 1983 .29418E+04 0.540E+01 0.000E+00 0.322E+00 0.262E+00 0.143E+03 0.559E-04 0.624E-04 0.000E+00 0.320E-03 0.103E-12 0.124E-09 0.124E-09 0.727E-08 0.742E-08 0.248E-09 0.257E-03 0.576E-06 0.100E-11 .26085E-09 0.000E+00 0.458E-04 0.000E+00 0.000E+00 0.000E+00
BIGSUB    3        0  1  6 1983 .52470E+04 0.350E+01 0.000E+00 0.322E+00 0.239E+00 0.175E+03 0.388E-05 0.443E-02 0.000E+00 0.485E-02 0.282E-09 0.207E-09 0.785E-10 0.517E-06 0.518E-06 0.248E-09 0.419E-03 0.169E-05 0.100E-11 .20657E-07 0.000E+00 0.707E-03 0.000E+00 0.000E+00 0.000E+00
BIGSUB    4        0  1  6 1983 .43680E+04 0.410E+01 0.000E+00 0.345E+00 0.262E+00 0.151E+03 0.823E-03 0.219E-02 0.000E+00 0.333E-02 0.654E-10 0.123E-09 0.121E-09 0.221E-06 0.256E-06 0.244E-09 0.113E-02 0.731E-05 0.100E-11 .87816E-08 0.000E+00 0.484E-03 0.000E+00 0.300E-06 0.000E+00
BIGSUB    5        0  1  6 1983 .19178E+04 0.560E+01 0.000E+00 0.358E+00 0.304E+00 0.111E+03 0.578E-03 0.453E-05 0.000E+00 0.333E-03 0.717E-13 0.168E-09 0.168E-09 0.555E-09 0.667E-09 0.336E-09 0.328E-03 0.108E-05 0.100E-11 .32380E-18 0.000E+00 0.464E-04 0.000E+00 0.000E+00 0.000E+00
BIGSUB    6        0  1  6 1983 .49397E+04 0.810E+01 0.000E+00 0.335E+00 0.264E+00 0.108E+03 0.677E-02 0.142E-03 0.000E+00 0.543E-02 0.713E-12 0.204E-09 0.204E-09 0.204E-07 0.170E-07 0.407E-09 0.528E-02 0.528E-05 0.100E-11 .61795E-09 0.000E+00 0.791E-03 0.000E+00 0.000E+00 0.000E+00
BIGSUB    7        0  1  6 1983 .23151E+04 0.480E+01 0.000E+00 0.349E+00 0.204E+00 0.151E+03 0.103E-02 0.494E-05 0.000E+00 0.491E-02 0.591E-13 0.195E-09 0.195E-09 0.970E-09 0.776E-09 0.391E-09 0.490E-02 0.665E-05 0.100E-11 .11210E-17 0.000E+00 0.713E-03 0.000E+00 0.000E+00 0.000E+00
BIGSUB    8        0  1  6 1983 .22261E+04 0.190E+01 0.000E+00 0.362E+00 0.232E+00 0.160E+03 0.147E-01 0.296E-04 0.000E+00 0.480E-02 0.748E-13 0.184E-09 0.184E-09 0.654E-08 0.431E-08 0.368E-09 0.477E-02 0.505E-05 0.100E-11 .27082E-10 0.000E+00 0.698E-03 0.000E+00 0.000E+00 0.000E+00
BIGSUB    1        0  1  7 1983 .45201E+04 0.530E+01 0.000E+00 0.281E+00 0.226E+00 0.129E+03 0.457E-06 0.145E-02 0.000E+00 0.157E-02 0.446E-10 0.140E-09 0.140E-09 0.147E-06 0.171E-06 0.280E-09 0.121E-03 0.391E-06 0.100E-11 .58609E-08 0.000E+00 0.226E-03 0.000E+00 0.000E+00 0.000E+00
BIGSUB    2        0  1  7 1983 .29418E+04 0.770E+01 0.000E+00 0.291E+00 0.236E+00 0.143E+03 0.556E-04 0.525E-04 0.000E+00 0.304E-03 0.851E-13 0.124E-09 0.124E-09 0.613E-08 0.626E-08 0.248E-09 0.251E-03 0.566E-06 0.100E-11 .22085E-09 0.000E+00 0.431E-04 0.000E+00 0.000E+00 0.000E+00
BIGSUB    3        0  1  7 1983 .52470E+04 0.860E+01 0.000E+00 0.296E+00 0.220E+00 0.175E+03 0.387E-05 0.418E-02 0.000E+00 0.457E-02 0.250E-09 0.178E-09 0.748E-10 0.488E-06 0.488E-06 0.238E-09 0.391E-03 0.162E-05 0.100E-11 .19494E-07 0.000E+00 0.649E-03 0.000E+00 0.000E+00 0.000E+00
BIGSUB    4        0  1  7 1983 .43680E+04 0.720E+01 0.000E+00 0.348E+00 0.264E+00 0.151E+03 0.953E-03 0.202E-02 0.000E+00 0.316E-02 0.557E-10 0.122E-09 0.121E-09 0.204E-06 0.237E-06 0.243E-09 0.113E-02 0.724E-05 0.100E-11 .80989E-08 0.000E+00 0.444E-03 0.000E+00 0.234E-06 0.000E+00
BIGSUB    5        0  1  7 1983 .19178E+04 0.890E+01 0.000E+00 0.323E+00 0.274E+00 0.111E+03 0.575E-03 0.365E-05 0.000E+00 0.324E-03 0.717E-13 0.168E-09 0.168E-09 0.476E-09 0.565E-09 0.336E-09 0.320E-03 0.106E-05 0.100E-11 .34364E-18 0.000E+00 0.442E-04 0.000E+00 0.000E+00 0.000E+00
BIGSUB    6        0  1  7 1983 .49397E+04 0.460E+01 0.000E+00 0.313E+00 0.247E+00 0.107E+03 0.141E-01 0.125E-03 0.000E+00 0.550E-02 0.565E-12 0.204E-09 0.204E-09 0.179E-07 0.149E-07 0.407E-09 0.537E-02 0.539E-05 0.100E-11 .49809E-09 0.000E+00 0.793E-03 0.000E+00 0.000E+00 0.000E+00
BIGSUB    7        0  1  7 1983 .23151E+04 0.260E+01 0.000E+00 0.340E+00 0.198E+00 0.150E+03 0.103E-02 0.396E-05 0.000E+00 0.480E-02 0.591E-13 0.195E-09 0.195E-09 0.806E-09 0.653E-09 0.391E-09 0.479E-02 0.654E-05 0.100E-11 .12099E-17 0.000E+00 0.694E-03 0.000E+00 0.000E+00 0.000E+00
BIGSUB    8        0  1  7 1983 .22261E+04 0.320E+01 0.000E+00 0.365E+00 0.233E+00 0.160E+03 0.146E-01 0.244E-04 0.000E+00 0.473E-02 0.696E-13 0.184E-09 0.184E-09 0.541E-08 0.358E-08 0.368E-09 0.471E-02 0.498E-05 0.100E-11 .17186E-10 0.000E+00 0.673E-03 0.000E+00 0.000E+00 0.000E+00
BIGSUB    1        0  1  8 1983 .45201E+04 0.000E+00 0.000E+00 0.185E+00 0.148E+00 0.129E+03 0.457E-06 0.134E-02 0.000E+00 0.146E-02 0.381E-10 0.140E-09 0.140E-09 0.136E-06 0.158E-06 0.280E-09 0.117E-03 0.378E-06 0.100E-11 .54247E-08 0.000E+00 0.212E-03 0.000E+00 0.000E+00 0.000E+00
BIGSUB    2        0  1  8 1983 .29418E+04 0.000E+00 0.000E+00 0.195E+00 0.159E+00 0.143E+03 0.552E-04 0.442E-04 0.000E+00 0.290E-03 0.731E-13 0.124E-09 0.124E-09 0.517E-08 0.529E-08 0.248E-09 0.246E-03 0.557E-06 0.100E-11 .18694E-09 0.000E+00 0.418E-04 0.000E+00 0.000E+00 0.000E+00
BIGSUB    3        0  1  8 1983 .52470E+04 0.000E+00 0.000E+00 0.201E+00 0.149E+00 0.175E+03 0.387E-05 0.394E-02 0.000E+00 0.431E-02 0.222E-09 0.154E-09 0.718E-10 0.460E-06 0.461E-06 0.229E-09 0.367E-03 0.156E-05 0.100E-11 .18397E-07 0.000E+00 0.628E-03 0.000E+00 0.000E+00 0.000E+00
BIGSUB    4        0  1  8 1983 .43680E+04 0.000E+00 0.000E+00 0.244E+00 0.185E+00 0.151E+03 0.127E-02 0.187E-02 0.000E+00 0.300E-02 0.473E-10 0.122E-09 0.121E-09 0.188E-06 0.218E-06 0.242E-09 0.113E-02 0.727E-05 0.100E-11 .74707E-08 0.000E+00 0.437E-03 0.000E+00 0.182E-06 0.000E+00
BIGSUB    5        0  1  8 1983 .19178E+04 0.000E+00 0.000E+00 0.223E+00 0.189E+00 0.111E+03 0.572E-03 0.295E-05 0.000E+00 0.316E-03 0.717E-13 0.168E-09 0.168E-09 0.412E-09 0.483E-09 0.336E-09 0.313E-03 0.105E-05 0.100E-11 .36543E-18 0.000E+00 0.447E-04 0.000E+00 0.000E+00 0.000E+00
BIGSUB    6        0  1  8 1983 .49397E+04 0.400E+00 0.000E+00 0.212E+00 0.167E+00 0.107E+03 0.140E-01 0.110E-03 0.000E+00 0.554E-02 0.452E-12 0.204E-09 0.204E-09 0.157E-07 0.131E-07 0.407E-09 0.543E-02 0.547E-05 0.100E-11 .40140E-09 0.000E+00 0.807E-03 0.000E+00 0.000E+00 0.000E+00
BIGSUB    7        0  1  8 1983 .23151E+04 0.300E+00 0.000E+00 0.198E+00 0.115E+00 0.150E+03 0.103E-02 0.319E-05 0.000E+00 0.470E-02 0.591E-13 0.195E-09 0.195E-09 0.676E-09 0.555E-09 0.391E-09 0.470E-02 0.643E-05 0.100E-11 .13284E-17 0.000E+00 0.683E-03 0.000E+00 0.000E+00 0.000E+00
BIGSUB    8        0  1  8 1983 .22261E+04 0.000E+00 0.000E+00 0.222E+00 0.142E+00 0.160E+03 0.146E-01 0.201E-04 0.000E+00 0.467E-02 0.663E-13 0.184E-09 0.184E-09 0.448E-08 0.297E-08 0.368E-09 0.465E-02 0.491E-05 0.100E-11 .10751E-10 0.000E+00 0.681E-03 0.000E+00 0.000E+00 0.000E+00
BIGSUB    1        0  1  9 1983 .45201E+04 0.000E+00 0.000E+00 0.336E+00 0.269E+00 0.129E+03 0.456E-06 0.124E-02 0.000E+00 0.136E-02 0.325E-10 0.140E-09 0.140E-09 0.126E-06 0.147E-06 0.280E-09 0.112E-03 0.365E-06 0.100E-11 .50217E-08 0.000E+00 0.192E-03 0.000E+00 0.000E+00 0.000E+00
BIGSUB    2        0  1  9 1983 .29418E+04 0.000E+00 0.000E+00 0.344E+00 0.280E+00 0.143E+03 0.719E-04 0.372E-04 0.000E+00 0.278E-03 0.649E-13 0.124E-09 0.124E-09 0.437E-08 0.447E-08 0.248E-09 0.241E-03 0.532E-06 0.100E-11 .15820E-09 0.000E+00 0.390E-04 0.000E+00 0.000E+00 0.000E+00
BIGSUB    3        0  1  9 1983 .52470E+04 0.000E+00 0.000E+00 0.333E+00 0.247E+00 0.175E+03 0.166E-04 0.372E-02 0.000E+00 0.410E-02 0.197E-09 0.138E-09 0.696E-10 0.434E-06 0.435E-06 0.221E-09 0.380E-03 0.155E-05 0.100E-11 .17361E-07 0.000E+00 0.577E-03 0.000E+00 0.000E+00 0.000E+00
BIGSUB    4        0  1  9 1983 .43680E+04 0.100E+00 0.000E+00 0.367E+00 0.278E+00 0.151E+03 0.168E-02 0.173E-02 0.000E+00 0.292E-02 0.403E-10 0.121E-09 0.121E-09 0.173E-06 0.202E-06 0.242E-09 0.119E-02 0.734E-05 0.100E-11 .68924E-08 0.000E+00 0.397E-03 0.000E+00 0.142E-06 0.000E+00
BIGSUB    5        0  1  9 1983 .19178E+04 0.000E+00 0.000E+00 0.379E+00 0.322E+00 0.110E+03 0.570E-03 0.239E-05 0.000E+00 0.310E-03 0.717E-13 0.168E-09 0.168E-09 0.362E-09 0.418E-09 0.336E-09 0.307E-03 0.103E-05 0.100E-11 .38958E-18 0.000E+00 0.413E-04 0.000E+00 0.000E+00 0.000E+00
BIGSUB    6        0  1  9 1983 .49397E+04 0.000E+00 0.000E+00 0.361E+00 0.283E+00 0.107E+03 0.142E-01 0.965E-04 0.000E+00 0.567E-02 0.367E-12 0.204E-09 0.204E-09 0.138E-07 0.116E-07 0.407E-09 0.557E-02 0.563E-05 0.100E-11 .32305E-09 0.000E+00 0.784E-03 0.000E+00 0.000E+00 0.000E+00
BIGSUB    7        0  1  9 1983 .23151E+04 0.000E+00 0.000E+00 0.373E+00 0.216E+00 0.150E+03 0.102E-02 0.257E-05 0.000E+00 0.462E-02 0.591E-13 0.195E-09 0.195E-09 0.573E-09 0.478E-09 0.391E-09 0.461E-02 0.634E-05 0.100E-11 .14934E-17 0.000E+00 0.638E-03 0.000E+00 0.000E+00 0.000E+00
BIGSUB    8        0  1  9 1983 .22261E+04 0.800E+00 0.000E+00 0.380E+00 0.242E+00 0.160E+03 0.146E-01 0.165E-04 0.000E+00 0.461E-02 0.641E-13 0.184E-09 0.184E-09 0.371E-08 0.247E-08 0.368E-09 0.460E-02 0.484E-05 0.100E-11 .66367E-11 0.000E+00 0.630E-03 0.000E+00 0.000E+00 0.000E+00
BIGSUB    1        0  1 10 1983 .45201E+04 0.390E+01 0.000E+00 0.315E+00 0.252E+00 0.129E+03 0.456E-06 0.115E-02 0.000E+00 0.126E-02 0.278E-10 0.140E-09 0.140E-09 0.117E-06 0.136E-06 0.280E-09 0.108E-03 0.352E-06 0.100E-11 .46491E-08 0.000E+00 0.166E-03 0.000E+00 0.000E+00 0.000E+00
BIGSUB    2        0  1 10 1983 .29418E+04 0.540E+01 0.000E+00 0.319E+00 0.260E+00 0.143E+03 0.216E-03 0.313E-04 0.000E+00 0.269E-03 0.593E-13 0.124E-09 0.124E-09 0.370E-08 0.378E-08 0.248E-09 0.238E-03 0.524E-06 0.100E-11 .13385E-09 0.000E+00 0.351E-04 0.000E+00 0.000E+00 0.000E+00
BIGSUB    3        0  1 10 1983 .52470E+04 0.990E+01 0.000E+00 0.306E+00 0.227E+00 0.175E+03 0.315E-03 0.351E-02 0.000E+00 0.391E-02 0.175E-09 0.127E-09 0.682E-10 0.410E-06 0.410E-06 0.214E-09 0.395E-03 0.155E-05 0.100E-11 .16384E-07 0.000E+00 0.511E-03 0.000E+00 0.000E+00 0.000E+00
BIGSUB    4        0  1 10 1983 .43680E+04 0.101E+02 0.000E+00 0.331E+00 0.251E+00 0.151E+03 0.314E-02 0.160E-02 0.000E+00 0.294E-02 0.343E-10 0.121E-09 0.121E-09 0.160E-06 0.186E-06 0.241E-09 0.134E-02 0.757E-05 0.100E-11 .63600E-08 0.000E+00 0.382E-03 0.000E+00 0.110E-06 0.000E+00
BIGSUB    5        0  1 10 1983 .19178E+04 0.820E+01 0.000E+00 0.345E+00 0.293E+00 0.110E+03 0.567E-03 0.194E-05 0.000E+00 0.303E-03 0.717E-13 0.168E-09 0.168E-09 0.321E-09 0.366E-09 0.336E-09 0.301E-03 0.102E-05 0.100E-11 .41670E-18 0.000E+00 0.390E-04 0.000E+00 0.000E+00 0.000E+00
BIGSUB    6        0  1 10 1983 .49397E+04 0.440E+01 0.000E+00 0.336E+00 0.264E+00 0.107E+03 0.149E-01 0.848E-04 0.000E+00 0.587E-02 0.301E-12 0.204E-09 0.204E-09 0.121E-07 0.102E-07 0.407E-09 0.579E-02 0.586E-05 0.100E-11 .25944E-09 0.000E+00 0.773E-03 0.000E+00 0.000E+00 0.000E+00
BIGSUB    7        0  1 10 1983 .23151E+04 0.410E+01 0.000E+00 0.345E+00 0.199E+00 0.150E+03 0.177E-01 0.208E-05 0.000E+00 0.506E-02 0.591E-13 0.195E-09 0.195E-09 0.491E-09 0.416E-09 0.391E-09 0.506E-02 0.675E-05 0.100E-11 .17313E-17 0.000E+00 0.662E-03 0.000E+00 0.000E+00 0.000E+00
BIGSUB    8        0  1 10 1983 .22261E+04 0.100E+02 0.000E+00 0.350E+00 0.223E+00 0.160E+03 0.145E-01 0.136E-04 0.000E+00 0.455E-02 0.628E-13 0.184E-09 0.184E-09 0.308E-08 0.207E-08 0.368E-09 0.454E-02 0.478E-05 0.100E-11 .40483E-11 0.000E+00 0.595E-03 0.000E+00 0.000E+00 0.000E+00
BIGSUB    1        0  1 11 1983 .45201E+04 0.600E+00 0.000E+00 0.295E+00 0.237E+00 0.129E+03 0.456E-06 0.107E-02 0.000E+00 0.117E-02 0.237E-10 0.140E-09 0.140E-09 0.108E-06 0.126E-06 0.280E-09 0.103E-03 0.317E-06 0.100E-11 .42711E-08 0.000E+00 0.169E-03 0.000E+00 0.000E+00 0.000E+00
BIGSUB    2        0  1 11 1983 .29418E+04 0.400E+00 0.000E+00 0.307E+00 0.250E+00 0.143E+03 0.216E-03 0.264E-04 0.000E+00 0.261E-03 0.554E-13 0.124E-09 0.124E-09 0.313E-08 0.320E-08 0.248E-09 0.234E-03 0.516E-06 0.100E-11 .11322E-09 0.000E+00 0.377E-04 0.000E+00 0.000E+00 0.000E+00
BIGSUB    3        0  1 11 1983 .52470E+04 0.000E+00 0.000E+00 0.321E+00 0.238E+00 0.175E+03 0.147E-03 0.331E-02 0.000E+00 0.371E-02 0.155E-09 0.116E-09 0.667E-10 0.387E-06 0.387E-06 0.208E-09 0.397E-03 0.152E-05 0.100E-11 .15462E-07 0.000E+00 0.540E-03 0.000E+00 0.000E+00 0.000E+00
BIGSUB    4        0  1 11 1983 .43680E+04 0.100E+00 0.000E+00 0.363E+00 0.275E+00 0.151E+03 0.313E-02 0.147E-02 0.000E+00 0.291E-02 0.292E-10 0.121E-09 0.121E-09 0.147E-06 0.172E-06 0.241E-09 0.144E-02 0.771E-05 0.100E-11 .58697E-08 0.000E+00 0.424E-03 0.000E+00 0.860E-07 0.000E+00
BIGSUB    5        0  1 11 1983 .19178E+04 0.400E+00 0.000E+00 0.316E+00 0.268E+00 0.110E+03 0.565E-03 0.159E-05 0.000E+00 0.298E-03 0.717E-13 0.168E-09 0.168E-09 0.289E-09 0.325E-09 0.336E-09 0.296E-03 0.100E-05 0.100E-11 .44771E-18 0.000E+00 0.426E-04 0.000E+00 0.000E+00 0.000E+00
BIGSUB    6        0  1 11 1983 .49397E+04 0.400E+00 0.000E+00 0.318E+00 0.249E+00 0.107E+03 0.148E-01 0.746E-04 0.000E+00 0.602E-02 0.252E-12 0.204E-09 0.204E-09 0.106E-07 0.898E-08 0.407E-09 0.594E-02 0.603E-05 0.100E-11 .20774E-09 0.000E+00 0.877E-03 0.000E+00 0.000E+00 0.000E+00
BIGSUB    7        0  1 11 1983 .23151E+04 0.300E+00 0.000E+00 0.319E+00 0.184E+00 0.150E+03 0.372E-02 0.170E-05 0.000E+00 0.539E-02 0.591E-13 0.195E-09 0.195E-09 0.426E-09 0.367E-09 0.391E-09 0.539E-02 0.706E-05 0.100E-11 .20866E-17 0.000E+00 0.783E-03 0.000E+00 0.000E+00 0.000E+00
BIGSUB    8        0  1 11 1983 .22261E+04 0.100E+00 0.000E+00 0.339E+00 0.216E+00 0.160E+03 0.145E-01 0.112E-04 0.000E+00 0.450E-02 0.620E-13 0.184E-09 0.184E-09 0.257E-08 0.173E-08 0.368E-09 0.449E-02 0.471E-05 0.100E-11 .24430E-11 0.000E+00 0.655E-03 0.000E+00 0.000E+00 0.000E+00
BIGSUB    1        0  1 12 1983 .45201E+04 0.000E+00 0.000E+00 0.227E-01 0.182E-01 0.129E+03 0.456E-06 0.987E-03 0.000E+00 0.109E-02 0.202E-10 0.140E-09 0.140E-09 0.100E-06 0.116E-06 0.280E-09 0.993E-04 0.303E-06 0.100E-11 .39582E-08 0.000E+00 0.157E-03 0.000E+00 0.000E+00 0.000E+00
BIGSUB    2        0  1 12 1983 .29418E+04 0.100E+00 0.000E+00 0.444E-01 0.361E-01 0.143E+03 0.540E-04 0.222E-04 0.000E+00 0.252E-03 0.528E-13 0.124E-09 0.124E-09 0.265E-08 0.271E-08 0.248E-09 0.230E-03 0.508E-06 0.100E-11 .95762E-10 0.000E+00 0.365E-04 0.000E+00 0.000E+00 0.000E+00
BIGSUB    3        0  1 12 1983 .52470E+04 0.000E+00 0.000E+00 0.739E-01 0.548E-01 0.175E+03 0.385E-05 0.313E-02 0.000E+00 0.349E-02 0.138E-09 0.108E-09 0.657E-10 0.365E-06 0.365E-06 0.202E-09 0.362E-03 0.145E-05 0.100E-11 .14591E-07 0.000E+00 0.508E-03 0.000E+00 0.000E+00 0.000E+00
BIGSUB    4        0  1 12 1983 .43680E+04 0.000E+00 0.000E+00 0.124E+00 0.938E-01 0.151E+03 0.132E-02 0.136E-02 0.000E+00 0.276E-02 0.248E-10 0.121E-09 0.121E-09 0.136E-06 0.159E-06 0.241E-09 0.139E-02 0.754E-05 0.100E-11 .54182E-08 0.000E+00 0.401E-03 0.000E+00 0.669E-07 0.000E+00
BIGSUB    5        0  1 12 1983 .19178E+04 0.000E+00 0.000E+00 0.951E-01 0.807E-01 0.110E+03 0.562E-03 0.130E-05 0.000E+00 0.292E-03 0.717E-13 0.168E-09 0.168E-09 0.263E-09 0.292E-09 0.336E-09 0.291E-03 0.993E-06 0.100E-11 .48398E-18 0.000E+00 0.420E-04 0.000E+00 0.000E+00 0.000E+00
BIGSUB    6        0  1 12 1983 .49397E+04 0.000E+00 0.000E+00 0.610E-01 0.477E-01 0.107E+03 0.140E-01 0.657E-04 0.000E+00 0.600E-02 0.214E-12 0.204E-09 0.204E-09 0.937E-08 0.792E-08 0.407E-09 0.593E-02 0.602E-05 0.100E-11 .16571E-09 0.000E+00 0.874E-03 0.000E+00 0.000E+00 0.000E+00
BIGSUB    7        0  1 12 1983 .23151E+04 0.000E+00 0.000E+00 0.518E-01 0.298E-01 0.150E+03 0.101E-02 0.139E-05 0.000E+00 0.514E-02 0.591E-13 0.195E-09 0.195E-09 0.375E-09 0.328E-09 0.391E-09 0.514E-02 0.681E-05 0.100E-11 .17217E-17 0.000E+00 0.747E-03 0.000E+00 0.000E+00 0.000E+00
BIGSUB    8        0  1 12 1983 .22261E+04 0.200E+00 0.000E+00 0.874E-01 0.555E-01 0.160E+03 0.144E-01 0.925E-05 0.000E+00 0.444E-02 0.614E-13 0.184E-09 0.184E-09 0.214E-08 0.145E-08 0.368E-09 0.443E-02 0.464E-05 0.100E-11 .14603E-11 0.000E+00 0.647E-03 0.000E+00 0.000E+00 0.000E+00
BIGSUB    1        0  1 13 1983 .45201E+04 0.000E+00 0.000E+00 0.228E+00 0.183E+00 0.129E+03 0.456E-06 0.914E-03 0.000E+00 0.101E-02 0.173E-10 0.140E-09 0.140E-09 0.926E-07 0.108E-06 0.280E-09 0.955E-04 0.292E-06 0.100E-11 .36683E-08 0.000E+00 0.146E-03 0.000E+00 0.000E+00 0.000E+00
BIGSUB    2        0  1 13 1983 .29418E+04 0.000E+00 0.000E+00 0.222E+00 0.181E+00 0.143E+03 0.538E-04 0.187E-04 0.000E+00 0.244E-03 0.510E-13 0.124E-09 0.124E-09 0.225E-08 0.230E-08 0.248E-09 0.225E-03 0.499E-06 0.100E-11 .80982E-10 0.000E+00 0.354E-04 0.000E+00 0.000E+00 0.000E+00
BIGSUB    3        0  1 13 1983 .52470E+04 0.300E+00 0.000E+00 0.188E+00 0.139E+00 0.175E+03 0.384E-05 0.295E-02 0.000E+00 0.328E-02 0.122E-09 0.102E-09 0.649E-10 0.344E-06 0.345E-06 0.197E-09 0.333E-03 0.138E-05 0.100E-11 .13770E-07 0.000E+00 0.478E-03 0.000E+00 0.000E+00 0.000E+00
BIGSUB    4        0  1 13 1983 .43680E+04 0.000E+00 0.000E+00 0.238E+00 0.180E+00 0.151E+03 0.132E-02 0.126E-02 0.000E+00 0.261E-02 0.211E-10 0.121E-09 0.121E-09 0.125E-06 0.147E-06 0.241E-09 0.135E-02 0.736E-05 0.100E-11 .50022E-08 0.000E+00 0.380E-03 0.000E+00 0.521E-07 0.000E+00
BIGSUB    5        0  1 13 1983 .19178E+04 0.000E+00 0.000E+00 0.259E+00 0.220E+00 0.110E+03 0.559E-03 0.107E-05 0.000E+00 0.287E-03 0.717E-13 0.168E-09 0.168E-09 0.242E-09 0.265E-09 0.336E-09 0.286E-03 0.981E-06 0.100E-11 .52768E-18 0.000E+00 0.414E-04 0.000E+00 0.000E+00 0.000E+00
BIGSUB    6        0  1 13 1983 .49397E+04 0.000E+00 0.000E+00 0.252E+00 0.197E+00 0.107E+03 0.140E-01 0.578E-04 0.000E+00 0.597E-02 0.185E-12 0.204E-09 0.204E-09 0.825E-08 0.699E-08 0.407E-09 0.591E-02 0.600E-05 0.100E-11 .13159E-09 0.000E+00 0.870E-03 0.000E+00 0.000E+00 0.000E+00
BIGSUB    7        0  1 13 1983 .23151E+04 0.000E+00 0.000E+00 0.264E+00 0.151E+00 0.150E+03 0.101E-02 0.114E-05 0.000E+00 0.494E-02 0.591E-13 0.195E-09 0.195E-09 0.334E-09 0.298E-09 0.391E-09 0.494E-02 0.662E-05 0.100E-11 .20163E-17 0.000E+00 0.718E-03 0.000E+00 0.000E+00 0.000E+00
BIGSUB    8        0  1 13 1983 .22261E+04 0.000E+00 0.000E+00 0.287E+00 0.182E+00 0.160E+03 0.144E-01 0.763E-05 0.000E+00 0.439E-02 0.611E-13 0.184E-09 0.184E-09 0.179E-08 0.123E-08 0.368E-09 0.438E-02 0.458E-05 0.100E-11 .86544E-12 0.000E+00 0.639E-03 0.000E+00 0.000E+00 0.000E+00
BIGSUB    1        0  1 14 1983 .45201E+04 0.800E+00 0.000E+00 0.255E+00 0.204E+00 0.129E+03 0.456E-06 0.847E-03 0.000E+00 0.939E-03 0.148E-10 0.140E-09 0.140E-09 0.857E-07 0.997E-07 0.280E-09 0.918E-04 0.283E-06 0.100E-11 .33996E-08 0.000E+00 0.136E-03 0.000E+00 0.000E+00 0.000E+00
BIGSUB    2        0  1 14 1983 .29418E+04 0.300E+00 0.000E+00 0.252E+00 0.205E+00 0.143E+03 0.705E-04 0.158E-04 0.000E+00 0.237E-03 0.498E-13 0.124E-09 0.124E-09 0.191E-08 0.195E-08 0.248E-09 0.221E-03 0.492E-06 0.100E-11 .48365E-18 0.000E+00 0.321E-04 0.000E+00 0.000E+00 0.000E+00
BIGSUB    3        0  1 14 1983 .52470E+04 0.310E+01 0.000E+00 0.223E+00 0.165E+00 0.175E+03 0.384E-05 0.278E-02 0.000E+00 0.309E-02 0.108E-09 0.981E-10 0.644E-10 0.325E-06 0.325E-06 0.193E-09 0.309E-03 0.132E-05 0.100E-11 .12995E-07 0.000E+00 0.451E-03 0.000E+00 0.000E+00 0.000E+00
BIGSUB    4        0  1 14 1983 .43680E+04 0.600E+00 0.000E+00 0.281E+00 0.213E+00 0.151E+03 0.135E-02 0.116E-02 0.000E+00 0.248E-02 0.180E-10 0.121E-09 0.121E-09 0.116E-06 0.136E-06 0.241E-09 0.132E-02 0.718E-05 0.100E-11 .46189E-08 0.000E+00 0.361E-03 0.000E+00 0.406E-07 0.000E+00
BIGSUB    5        0  1 14 1983 .19178E+04 0.400E+00 0.000E+00 0.273E+00 0.232E+00 0.110E+03 0.557E-03 0.889E-06 0.000E+00 0.283E-03 0.717E-13 0.168E-09 0.168E-09 0.225E-09 0.244E-09 0.336E-09 0.282E-03 0.970E-06 0.100E-11 .58216E-18 0.000E+00 0.406E-04 0.000E+00 0.000E+00 0.000E+00
BIGSUB    6        0  1 14 1983 .49397E+04 0.000E+00 0.000E+00 0.290E+00 0.227E+00 0.107E+03 0.140E-01 0.509E-04 0.000E+00 0.594E-02 0.163E-12 0.204E-09 0.204E-09 0.727E-08 0.617E-08 0.407E-09 0.589E-02 0.598E-05 0.100E-11 .10398E-09 0.000E+00 0.866E-03 0.000E+00 0.000E+00 0.000E+00
BIGSUB    7        0  1 14 1983 .23151E+04 0.000E+00 0.000E+00 0.303E+00 0.174E+00 0.150E+03 0.101E-02 0.943E-06 0.000E+00 0.477E-02 0.591E-13 0.195E-09 0.195E-09 0.302E-09 0.273E-09 0.391E-09 0.477E-02 0.645E-05 0.100E-11 .24593E-17 0.000E+00 0.694E-03 0.000E+00 0.000E+00 0.000E+00
BIGSUB    8        0  1 14 1983 .22261E+04 0.000E+00 0.000E+00 0.319E+00 0.202E+00 0.159E+03 0.144E-01 0.631E-05 0.000E+00 0.433E-02 0.608E-13 0.184E-09 0.184E-09 0.151E-08 0.104E-08 0.368E-09 0.433E-02 0.452E-05 0.100E-11 .50919E-12 0.000E+00 0.630E-03 0.000E+00 0.000E+00 0.000E+00
BIGSUB    1        0  1 15 1983 .45201E+04 0.000E+00 0.000E+00 0.101E+00 0.810E-01 0.129E+03 0.456E-06 0.784E-03 0.000E+00 0.873E-03 0.126E-10 0.140E-09 0.140E-09 0.794E-07 0.924E-07 0.280E-09 0.882E-04 0.273E-06 0.100E-11 .31506E-08 0.000E+00 0.127E-03 0.000E+00 0.000E+00 0.000E+00
BIGSUB    2        0  1 15 1983 .29418E+04 0.000E+00 0.000E+00 0.116E+00 0.939E-01 0.143E+03 0.532E-04 0.133E-04 0.000E+00 0.231E-03 0.489E-13 0.124E-09 0.124E-09 0.163E-08 0.166E-08 0.248E-09 0.217E-03 0.484E-06 0.100E-11 .51522E-18 0.000E+00 0.315E-04 0.000E+00 0.000E+00 0.000E+00
BIGSUB    3        0  1 15 1983 .52470E+04 0.000E+00 0.000E+00 0.151E+00 0.112E+00 0.175E+03 0.384E-05 0.263E-02 0.000E+00 0.292E-02 0.961E-10 0.937E-10 0.638E-10 0.307E-06 0.307E-06 0.188E-09 0.289E-03 0.125E-05 0.100E-11 .12263E-07 0.000E+00 0.425E-03 0.000E+00 0.000E+00 0.000E+00
BIGSUB    4        0  1 15 1983 .43680E+04 0.000E+00 0.000E+00 0.187E+00 0.141E+00 0.151E+03 0.797E-03 0.108E-02 0.000E+00 0.225E-02 0.153E-10 0.121E-09 0.121E-09 0.107E-06 0.125E-06 0.241E-09 0.117E-02 0.658E-05 0.100E-11 .42655E-08 0.000E+00 0.327E-03 0.000E+00 0.316E-07 0.000E+00
BIGSUB    5        0  1 15 1983 .19178E+04 0.000E+00 0.000E+00 0.158E+00 0.134E+00 0.110E+03 0.554E-03 0.742E-06 0.000E+00 0.279E-03 0.717E-13 0.168E-09 0.168E-09 0.212E-09 0.227E-09 0.336E-09 0.278E-03 0.960E-06 0.100E-11 .65271E-18 0.000E+00 0.403E-04 0.000E+00 0.000E+00 0.000E+00
BIGSUB    6        0  1 15 1983 .49397E+04 0.000E+00 0.000E+00 0.129E+00 0.101E+00 0.107E+03 0.138E-01 0.448E-04 0.000E+00 0.590E-02 0.146E-12 0.204E-09 0.204E-09 0.641E-08 0.545E-08 0.407E-09 0.586E-02 0.595E-05 0.100E-11 .81722E-10 0.000E+00 0.860E-03 0.000E+00 0.000E+00 0.000E+00
BIGSUB    7        0  1 15 1983 .23151E+04 0.000E+00 0.000E+00 0.143E+00 0.817E-01 0.150E+03 0.101E-02 0.787E-06 0.000E+00 0.463E-02 0.591E-13 0.195E-09 0.195E-09 0.276E-09 0.254E-09 0.391E-09 0.463E-02 0.630E-05 0.100E-11 .19840E-17 0.000E+00 0.674E-03 0.000E+00 0.000E+00 0.000E+00
BIGSUB    8        0  1 15 1983 .22261E+04 0.000E+00 0.000E+00 0.175E+00 0.102E+00 0.159E+03 0.143E-01 0.521E-05 0.000E+00 0.428E-02 0.607E-13 0.184E-09 0.184E-09 0.127E-08 0.886E-09 0.368E-09 0.428E-02 0.445E-05 0.100E-11 .29776E-12 0.000E+00 0.624E-03 0.000E+00 0.000E+00 0.000E+00
BIGSUB    1        0  1 16 1983 .45201E+04 0.000E+00 0.000E+00 0.554E-01 0.444E-01 0.129E+03 0.455E-06 0.727E-03 0.000E+00 0.811E-03 0.108E-10 0.140E-09 0.140E-09 0.735E-07 0.856E-07 0.280E-09 0.849E-04 0.264E-06 0.100E-11 .29198E-08 0.000E+00 0.118E-03 0.000E+00 0.000E+00 0.000E+00
BIGSUB    2        0  1 16 1983 .29418E+04 0.000E+00 0.000E+00 0.701E-01 0.569E-01 0.143E+03 0.444E-04 0.112E-04 0.000E+00 0.223E-03 0.483E-13 0.124E-09 0.124E-09 0.139E-08 0.142E-08 0.248E-09 0.212E-03 0.476E-06 0.100E-11 .59300E-18 0.000E+00 0.307E-04 0.000E+00 0.000E+00 0.000E+00
BIGSUB    3        0  1 16 1983 .52470E+04 0.000E+00 0.000E+00 0.601E-01 0.445E-01 0.175E+03 0.381E-05 0.248E-02 0.000E+00 0.275E-02 0.853E-10 0.906E-10 0.634E-10 0.289E-06 0.290E-06 0.184E-09 0.272E-03 0.118E-05 0.100E-11 .11573E-07 0.000E+00 0.401E-03 0.000E+00 0.000E+00 0.000E+00
BIGSUB    4        0  1 16 1983 .43680E+04 0.000E+00 0.000E+00 0.101E+00 0.762E-01 0.151E+03 0.706E-03 0.995E-03 0.000E+00 0.204E-02 0.131E-10 0.121E-09 0.121E-09 0.988E-07 0.116E-06 0.241E-09 0.104E-02 0.604E-05 0.100E-11 .39398E-08 0.000E+00 0.296E-03 0.000E+00 0.246E-07 0.000E+00
BIGSUB    5        0  1 16 1983 .19178E+04 0.000E+00 0.000E+00 0.110E+00 0.933E-01 0.110E+03 0.511E-03 0.626E-06 0.000E+00 0.248E-03 0.717E-13 0.168E-09 0.168E-09 0.201E-09 0.213E-09 0.336E-09 0.247E-03 0.912E-06 0.100E-11 .74774E-18 0.000E+00 0.358E-04 0.000E+00 0.000E+00 0.000E+00
BIGSUB    6        0  1 16 1983 .49397E+04 0.000E+00 0.000E+00 0.789E-01 0.615E-01 0.107E+03 0.134E-01 0.394E-04 0.000E+00 0.567E-02 0.133E-12 0.204E-09 0.204E-09 0.565E-08 0.482E-08 0.407E-09 0.563E-02 0.573E-05 0.100E-11 .63850E-10 0.000E+00 0.827E-03 0.000E+00 0.000E+00 0.000E+00
BIGSUB    7        0  1 16 1983 .23151E+04 0.000E+00 0.000E+00 0.715E-01 0.376E-01 0.150E+03 0.847E-03 0.663E-06 0.000E+00 0.450E-02 0.591E-13 0.195E-09 0.195E-09 0.256E-09 0.238E-09 0.391E-09 0.450E-02 0.616E-05 0.100E-11 .23582E-17 0.000E+00 0.656E-03 0.000E+00 0.000E+00 0.000E+00
BIGSUB    8        0  1 16 1983 .22261E+04 0.000E+00 0.000E+00 0.971E-01 0.541E-01 0.159E+03 0.141E-01 0.432E-05 0.000E+00 0.422E-02 0.607E-13 0.184E-09 0.184E-09 0.107E-08 0.759E-09 0.368E-09 0.422E-02 0.438E-05 0.100E-11 .17319E-12 0.000E+00 0.615E-03 0.000E+00 0.000E+00 0.000E+00
BIGSUB    1        0  1 17 1983 .45201E+04 0.000E+00 0.000E+00 0.610E-01 0.489E-01 0.129E+03 0.455E-06 0.673E-03 0.000E+00 0.755E-03 0.920E-11 0.140E-09 0.140E-09 0.681E-07 0.793E-07 0.280E-09 0.816E-04 0.256E-06 0.100E-11 .27059E-08 0.000E+00 0.110E-03 0.000E+00 0.000E+00 0.000E+00
BIGSUB    2        0  1 17 1983 .29418E+04 0.000E+00 0.000E+00 0.794E-01 0.645E-01 0.143E+03 0.443E-04 0.948E-05 0.000E+00 0.216E-03 0.479E-13 0.124E-09 0.124E-09 0.119E-08 0.121E-08 0.248E-09 0.207E-03 0.468E-06 0.100E-11 .69029E-18 0.000E+00 0.300E-04 0.000E+00 0.000E+00 0.000E+00
BIGSUB    3        0  1 17 1983 .52470E+04 0.200E+00 0.000E+00 0.874E-01 0.648E-01 0.175E+03 0.381E-05 0.234E-02 0.000E+00 0.260E-02 0.757E-10 0.880E-10 0.630E-10 0.273E-06 0.273E-06 0.180E-09 0.257E-03 0.114E-05 0.100E-11 .10922E-07 0.000E+00 0.378E-03 0.000E+00 0.000E+00 0.000E+00
BIGSUB    4        0  1 17 1983 .43680E+04 0.200E+00 0.000E+00 0.135E+00 0.103E+00 0.151E+03 0.617E-03 0.920E-03 0.000E+00 0.182E-02 0.111E-10 0.121E-09 0.121E-09 0.912E-07 0.107E-06 0.241E-09 0.905E-03 0.527E-05 0.100E-11 .36395E-08 0.000E+00 0.266E-03 0.000E+00 0.192E-07 0.000E+00
BIGSUB    5        0  1 17 1983 .19178E+04 0.100E+00 0.000E+00 0.116E+00 0.984E-01 0.110E+03 0.225E-06 0.532E-06 0.000E+00 0.184E-03 0.717E-13 0.168E-09 0.168E-09 0.193E-09 0.202E-09 0.336E-09 0.183E-03 0.684E-06 0.100E-11 .94849E-18 0.000E+00 0.266E-04 0.000E+00 0.000E+00 0.000E+00
BIGSUB    6        0  1 17 1983 .49397E+04 0.000E+00 0.000E+00 0.100E+00 0.645E-01 0.107E+03 0.547E-02 0.347E-04 0.000E+00 0.521E-02 0.124E-12 0.204E-09 0.204E-09 0.499E-08 0.426E-08 0.407E-09 0.517E-02 0.521E-05 0.100E-11 .61887E-10 0.000E+00 0.758E-03 0.000E+00 0.000E+00 0.000E+00
BIGSUB    7        0  1 17 1983 .23151E+04 0.000E+00 0.000E+00 0.126E+00 0.648E-01 0.150E+03 0.450E-03 0.564E-06 0.000E+00 0.428E-02 0.591E-13 0.195E-09 0.195E-09 0.240E-09 0.226E-09 0.391E-09 0.428E-02 0.592E-05 0.100E-11 .16146E-17 0.000E+00 0.624E-03 0.000E+00 0.000E+00 0.000E+00
BIGSUB    8        0  1 17 1983 .22261E+04 0.000E+00 0.000E+00 0.158E+00 0.879E-01 0.159E+03 0.796E-02 0.358E-05 0.000E+00 0.416E-02 0.607E-13 0.184E-09 0.184E-09 0.914E-09 0.655E-09 0.368E-09 0.415E-02 0.425E-05 0.100E-11 .10547E-12 0.000E+00 0.606E-03 0.000E+00 0.000E+00 0.000E+00
BIGSUB    1        0  1 18 1983 .45201E+04 0.000E+00 0.000E+00 0.215E-03 0.151E-03 0.129E+03 0.455E-06 0.624E-03 0.000E+00 0.702E-03 0.786E-11 0.140E-09 0.140E-09 0.631E-07 0.734E-07 0.280E-09 0.785E-04 0.247E-06 0.100E-11 .25077E-08 0.000E+00 0.102E-03 0.000E+00 0.000E+00 0.000E+00
BIGSUB    2        0  1 18 1983 .29418E+04 0.000E+00 0.000E+00 0.136E-03 0.949E-04 0.143E+03 0.000E+00 0.800E-05 0.000E+00 0.196E-03 0.477E-13 0.124E-09 0.124E-09 0.102E-08 0.104E-08 0.248E-09 0.188E-03 0.447E-06 0.100E-11 .43871E-18 0.000E+00 0.273E-04 0.000E+00 0.000E+00 0.000E+00
BIGSUB    3        0  1 18 1983 .52470E+04 0.000E+00 0.000E+00 0.115E-03 0.804E-04 0.175E+03 0.000E+00 0.221E-02 0.000E+00 0.245E-02 0.672E-10 0.857E-10 0.627E-10 0.258E-06 0.258E-06 0.177E-09 0.244E-03 0.110E-05 0.100E-11 .10307E-07 0.000E+00 0.357E-03 0.000E+00 0.000E+00 0.000E+00
BIGSUB    4        0  1 18 1983 .43680E+04 0.000E+00 0.000E+00 0.573E-03 0.401E-03 0.151E+03 0.246E-03 0.851E-03 0.000E+00 0.164E-02 0.947E-11 0.121E-09 0.121E-09 0.843E-07 0.991E-07 0.241E-09 0.786E-03 0.453E-05 0.100E-11 .33625E-08 0.000E+00 0.238E-03 0.000E+00 0.149E-07 0.000E+00
BIGSUB    5        0  1 18 1983 .19178E+04 0.000E+00 0.000E+00 0.138E-03 0.969E-04 0.110E+03 0.218E-06 0.457E-06 0.000E+00 0.137E-03 0.717E-13 0.168E-09 0.168E-09 0.186E-09 0.194E-09 0.336E-09 0.137E-03 0.518E-06 0.100E-11 .87165E-18 0.000E+00 0.198E-04 0.000E+00 0.000E+00 0.000E+00
BIGSUB    6        0  1 18 1983 .49397E+04 0.000E+00 0.000E+00 0.224E-03 0.157E-03 0.107E+03 0.963E-03 0.306E-04 0.000E+00 0.467E-02 0.116E-12 0.204E-09 0.204E-09 0.441E-08 0.377E-08 0.407E-09 0.464E-02 0.469E-05 0.100E-11 .59645E-10 0.000E+00 0.681E-03 0.000E+00 0.000E+00 0.000E+00
BIGSUB    7        0  1 18 1983 .23151E+04 0.000E+00 0.000E+00 0.209E-02 0.971E-03 0.149E+03 0.318E-03 0.486E-06 0.000E+00 0.399E-02 0.591E-13 0.195E-09 0.195E-09 0.227E-09 0.216E-09 0.391E-09 0.399E-02 0.562E-05 0.100E-11 .16949E-17 0.000E+00 0.581E-03 0.000E+00 0.000E+00 0.000E+00
BIGSUB    8        0  1 18 1983 .22261E+04 0.000E+00 0.000E+00 0.112E-01 0.543E-02 0.159E+03 0.720E-03 0.297E-05 0.000E+00 0.408E-02 0.607E-13 0.184E-09 0.184E-09 0.783E-09 0.570E-09 0.368E-09 0.408E-02 0.413E-05 0.100E-11 .94323E-13 0.000E+00 0.595E-03 0.000E+00 0.000E+00 0.000E+00
BIGSUB    1        0  1 19 1983 .45201E+04 0.000E+00 0.000E+00 0.237E-03 0.166E-03 0.129E+03 0.455E-06 0.578E-03 0.000E+00 0.653E-03 0.672E-11 0.140E-09 0.140E-09 0.585E-07 0.680E-07 0.280E-09 0.755E-04 0.236E-06 0.100E-11 .23240E-08 0.000E+00 0.949E-04 0.000E+00 0.000E+00 0.000E+00
BIGSUB    2        0  1 19 1983 .29418E+04 0.000E+00 0.000E+00 0.152E-03 0.106E-03 0.143E+03 0.000E+00 0.676E-05 0.000E+00 0.179E-03 0.475E-13 0.124E-09 0.124E-09 0.876E-09 0.895E-09 0.248E-09 0.172E-03 0.426E-06 0.100E-11 .47073E-18 0.000E+00 0.250E-04 0.000E+00 0.000E+00 0.000E+00
BIGSUB    3        0  1 19 1983 .52470E+04 0.000E+00 0.000E+00 0.124E-03 0.869E-04 0.175E+03 0.000E+00 0.208E-02 0.000E+00 0.232E-02 0.596E-10 0.837E-10 0.625E-10 0.243E-06 0.244E-06 0.173E-09 0.232E-03 0.106E-05 0.100E-11 .97266E-08 0.000E+00 0.337E-03 0.000E+00 0.000E+00 0.000E+00
BIGSUB    4        0  1 19 1983 .43680E+04 0.000E+00 0.000E+00 0.585E-03 0.409E-03 0.151E+03 0.245E-03 0.787E-03 0.000E+00 0.148E-02 0.807E-11 0.121E-09 0.121E-09 0.779E-07 0.916E-07 0.241E-09 0.694E-03 0.396E-05 0.100E-11 .31069E-08 0.000E+00 0.215E-03 0.000E+00 0.116E-07 0.000E+00
BIGSUB    5        0  1 19 1983 .19178E+04 0.000E+00 0.000E+00 0.609E-02 0.515E-02 0.110E+03 0.211E-06 0.398E-06 0.000E+00 0.103E-03 0.717E-13 0.168E-09 0.168E-09 0.181E-09 0.187E-09 0.336E-09 0.103E-03 0.396E-06 0.100E-11 .11581E-17 0.000E+00 0.149E-04 0.000E+00 0.000E+00 0.000E+00
BIGSUB    6        0  1 19 1983 .49397E+04 0.000E+00 0.000E+00 0.768E-02 0.374E-02 0.107E+03 0.738E-03 0.269E-04 0.000E+00 0.405E-02 0.110E-12 0.204E-09 0.204E-09 0.390E-08 0.334E-08 0.407E-09 0.403E-02 0.411E-05 0.100E-11 .57157E-10 0.000E+00 0.591E-03 0.000E+00 0.000E+00 0.000E+00
BIGSUB    7        0  1 19 1983 .23151E+04 0.000E+00 0.000E+00 0.211E-01 0.971E-02 0.149E+03 0.237E-03 0.423E-06 0.000E+00 0.349E-02 0.591E-13 0.195E-09 0.195E-09 0.217E-09 0.209E-09 0.391E-09 0.349E-02 0.519E-05 0.100E-11 .17798E-17 0.000E+00 0.508E-03 0.000E+00 0.000E+00 0.000E+00
BIGSUB    8        0  1 19 1983 .22261E+04 0.000E+00 0.000E+00 0.369E-01 0.178E-01 0.159E+03 0.690E-03 0.248E-05 0.000E+00 0.390E-02 0.607E-13 0.184E-09 0.184E-09 0.675E-09 0.499E-09 0.368E-09 0.390E-02 0.388E-05 0.100E-11 .84393E-13 0.000E+00 0.568E-03 0.000E+00 0.000E+00 0.000E+00
BIGSUB    1        0  1 20 1983 .45201E+04 0.000E+00 0.000E+00 0.197E+00 0.158E+00 0.129E+03 0.455E-06 0.535E-03 0.000E+00 0.608E-03 0.575E-11 0.140E-09 0.140E-09 0.542E-07 0.630E-07 0.280E-09 0.727E-04 0.226E-06 0.100E-11 .21538E-08 0.000E+00 0.883E-04 0.000E+00 0.000E+00 0.000E+00
BIGSUB    2        0  1 20 1983 .29418E+04 0.000E+00 0.000E+00 0.198E+00 0.161E+00 0.143E+03 0.000E+00 0.571E-05 0.000E+00 0.163E-03 0.474E-13 0.124E-09 0.124E-09 0.757E-09 0.772E-09 0.248E-09 0.158E-03 0.407E-06 0.100E-11 .50539E-18 0.000E+00 0.229E-04 0.000E+00 0.000E+00 0.000E+00
BIGSUB    3        0  1 20 1983 .52470E+04 0.000E+00 0.000E+00 0.198E+00 0.147E+00 0.175E+03 0.000E+00 0.197E-02 0.000E+00 0.219E-02 0.529E-10 0.820E-10 0.622E-10 0.230E-06 0.230E-06 0.170E-09 0.221E-03 0.103E-05 0.100E-11 .91790E-08 0.000E+00 0.318E-03 0.000E+00 0.000E+00 0.000E+00
BIGSUB    4        0  1 20 1983 .43680E+04 0.000E+00 0.000E+00 0.227E+00 0.172E+00 0.151E+03 0.244E-03 0.728E-03 0.000E+00 0.135E-02 0.688E-11 0.121E-09 0.121E-09 0.719E-07 0.847E-07 0.241E-09 0.622E-03 0.350E-05 0.100E-11 .28047E-08 0.000E+00 0.195E-03 0.000E+00 0.906E-08 0.000E+00
BIGSUB    5        0  1 20 1983 .19178E+04 0.000E+00 0.000E+00 0.232E+00 0.197E+00 0.110E+03 0.204E-06 0.350E-06 0.000E+00 0.785E-04 0.717E-13 0.168E-09 0.168E-09 0.176E-09 0.181E-09 0.336E-09 0.782E-04 0.306E-06 0.100E-11 .16591E-17 0.000E+00 0.113E-04 0.000E+00 0.000E+00 0.000E+00
BIGSUB    6        0  1 20 1983 .49397E+04 0.000E+00 0.000E+00 0.212E+00 0.133E+00 0.107E+03 0.787E-03 0.237E-04 0.000E+00 0.357E-02 0.106E-12 0.204E-09 0.204E-09 0.345E-08 0.297E-08 0.407E-09 0.355E-02 0.352E-05 0.100E-11 .54470E-10 0.000E+00 0.520E-03 0.000E+00 0.000E+00 0.000E+00
BIGSUB    7        0  1 20 1983 .23151E+04 0.000E+00 0.000E+00 0.217E+00 0.112E+00 0.149E+03 0.315E-03 0.373E-06 0.000E+00 0.338E-02 0.591E-13 0.195E-09 0.195E-09 0.209E-09 0.205E-09 0.391E-09 0.338E-02 0.505E-05 0.100E-11 .18699E-17 0.000E+00 0.492E-03 0.000E+00 0.000E+00 0.000E+00
BIGSUB    8        0  1 20 1983 .22261E+04 0.000E+00 0.000E+00 0.226E+00 0.126E+00 0.159E+03 0.715E-03 0.207E-05 0.000E+00 0.387E-02 0.607E-13 0.184E-09 0.184E-09 0.585E-09 0.441E-09 0.368E-09 0.387E-02 0.382E-05 0.100E-11 .75552E-13 0.000E+00 0.564E-03 0.000E+00 0.000E+00 0.000E+00
BIGSUB    1        0  1 21 1983 .45201E+04 0.000E+00 0.000E+00 0.256E+00 0.205E+00 0.129E+03 0.455E-06 0.496E-03 0.000E+00 0.566E-03 0.491E-11 0.140E-09 0.140E-09 0.502E-07 0.584E-07 0.280E-09 0.699E-04 0.219E-06 0.100E-11 .19960E-08 0.000E+00 0.822E-04 0.000E+00 0.000E+00 0.000E+00
BIGSUB    2        0  1 21 1983 .29418E+04 0.000E+00 0.000E+00 0.260E+00 0.208E+00 0.143E+03 0.782E-05 0.483E-05 0.000E+00 0.162E-03 0.473E-13 0.124E-09 0.124E-09 0.656E-09 0.669E-09 0.248E-09 0.157E-03 0.399E-06 0.100E-11 .54293E-18 0.000E+00 0.228E-04 0.000E+00 0.000E+00 0.000E+00
BIGSUB    3        0  1 21 1983 .52470E+04 0.000E+00 0.000E+00 0.298E+00 0.221E+00 0.175E+03 0.000E+00 0.186E-02 0.000E+00 0.207E-02 0.470E-10 0.804E-10 0.621E-10 0.217E-06 0.217E-06 0.168E-09 0.212E-03 0.992E-06 0.100E-11 .86623E-08 0.000E+00 0.300E-03 0.000E+00 0.000E+00 0.000E+00
BIGSUB    4        0  1 21 1983 .43680E+04 0.000E+00 0.000E+00 0.320E+00 0.208E+00 0.150E+03 0.254E-03 0.673E-03 0.000E+00 0.124E-02 0.586E-11 0.121E-09 0.121E-09 0.665E-07 0.783E-07 0.241E-09 0.564E-03 0.313E-05 0.100E-11 .25964E-08 0.000E+00 0.178E-03 0.000E+00 0.706E-08 0.000E+00
BIGSUB    5        0  1 21 1983 .19178E+04 0.000E+00 0.000E+00 0.329E+00 0.235E+00 0.110E+03 0.198E-06 0.312E-06 0.000E+00 0.602E-04 0.717E-13 0.168E-09 0.168E-09 0.173E-09 0.177E-09 0.336E-09 0.599E-04 0.240E-06 0.100E-11 .77271E-18 0.000E+00 0.818E-05 0.000E+00 0.000E+00 0.000E+00
BIGSUB    6        0  1 21 1983 .49397E+04 0.000E+00 0.000E+00 0.272E+00 0.171E+00 0.106E+03 0.144E-02 0.209E-04 0.000E+00 0.348E-02 0.103E-12 0.204E-09 0.204E-09 0.306E-08 0.263E-08 0.407E-09 0.346E-02 0.344E-05 0.100E-11 .51630E-10 0.000E+00 0.506E-03 0.000E+00 0.000E+00 0.000E+00
BIGSUB    7        0  1 21 1983 .23151E+04 0.000E+00 0.000E+00 0.246E+00 0.126E+00 0.149E+03 0.314E-03 0.333E-06 0.000E+00 0.327E-02 0.591E-13 0.195E-09 0.195E-09 0.203E-09 0.201E-09 0.391E-09 0.327E-02 0.492E-05 0.100E-11 .19688E-17 0.000E+00 0.476E-03 0.000E+00 0.000E+00 0.000E+00
BIGSUB    8        0  1 21 1983 .22261E+04 0.000E+00 0.000E+00 0.253E+00 0.141E+00 0.159E+03 0.713E-03 0.173E-05 0.000E+00 0.383E-02 0.607E-13 0.184E-09 0.184E-09 0.512E-09 0.393E-09 0.368E-09 0.383E-02 0.377E-05 0.100E-11 .67684E-13 0.000E+00 0.556E-03 0.000E+00 0.000E+00 0.000E+00
BIGSUB    1        0  1 22 1983 .45201E+04 0.000E+00 0.000E+00 0.360E+00 0.267E+00 0.129E+03 0.455E-06 0.459E-03 0.000E+00 0.527E-03 0.420E-11 0.140E-09 0.140E-09 0.465E-07 0.541E-07 0.280E-09 0.673E-04 0.212E-06 0.100E-11 .18498E-08 0.000E+00 0.765E-04 0.000E+00 0.000E+00 0.000E+00
BIGSUB    2        0  1 22 1983 .29418E+04 0.000E+00 0.000E+00 0.374E+00 0.244E+00 0.143E+03 0.369E-04 0.408E-05 0.000E+00 0.161E-03 0.472E-13 0.124E-09 0.124E-09 0.571E-09 0.582E-09 0.248E-09 0.157E-03 0.395E-06 0.100E-11 .58319E-18 0.000E+00 0.228E-04 0.000E+00 0.000E+00 0.000E+00
BIGSUB    3        0  1 22 1983 .52470E+04 0.000E+00 0.000E+00 0.371E+00 0.269E+00 0.175E+03 0.000E+00 0.175E-02 0.000E+00 0.195E-02 0.417E-10 0.790E-10 0.621E-10 0.204E-06 0.205E-06 0.165E-09 0.202E-03 0.959E-06 0.100E-11 .81747E-08 0.000E+00 0.284E-03 0.000E+00 0.000E+00 0.000E+00
BIGSUB    4        0  1 22 1983 .43680E+04 0.000E+00 0.000E+00 0.392E+00 0.245E+00 0.150E+03 0.253E-03 0.623E-03 0.000E+00 0.114E-02 0.499E-11 0.121E-09 0.121E-09 0.615E-07 0.725E-07 0.241E-09 0.518E-03 0.283E-05 0.100E-11 .24036E-08 0.000E+00 0.165E-03 0.000E+00 0.550E-08 0.000E+00
BIGSUB    5        0  1 22 1983 .19178E+04 0.000E+00 0.000E+00 0.422E+00 0.284E+00 0.110E+03 0.191E-06 0.281E-06 0.000E+00 0.467E-04 0.717E-13 0.168E-09 0.168E-09 0.170E-09 0.173E-09 0.336E-09 0.464E-04 0.169E-06 0.100E-11 .85926E-18 0.000E+00 0.648E-05 0.000E+00 0.000E+00 0.000E+00
BIGSUB    6        0  1 22 1983 .49397E+04 0.000E+00 0.000E+00 0.383E+00 0.241E+00 0.106E+03 0.542E-02 0.184E-04 0.000E+00 0.346E-02 0.100E-12 0.204E-09 0.204E-09 0.271E-08 0.234E-08 0.407E-09 0.344E-02 0.340E-05 0.100E-11 .48680E-10 0.000E+00 0.504E-03 0.000E+00 0.000E+00 0.000E+00
BIGSUB    7        0  1 22 1983 .23151E+04 0.000E+00 0.000E+00 0.356E+00 0.182E+00 0.149E+03 0.312E-03 0.302E-06 0.000E+00 0.317E-02 0.591E-13 0.195E-09 0.195E-09 0.200E-09 0.198E-09 0.391E-09 0.317E-02 0.479E-05 0.100E-11 .20777E-17 0.000E+00 0.461E-03 0.000E+00 0.000E+00 0.000E+00
BIGSUB    8        0  1 22 1983 .22261E+04 0.000E+00 0.000E+00 0.377E+00 0.209E+00 0.159E+03 0.710E-03 0.145E-05 0.000E+00 0.379E-02 0.607E-13 0.184E-09 0.184E-09 0.452E-09 0.354E-09 0.368E-09 0.379E-02 0.362E-05 0.100E-11 .53279E-13 0.000E+00 0.551E-03 0.000E+00 0.000E+00 0.000E+00
BIGSUB    1        0  1 23 1983 .45201E+04 0.000E+00 0.000E+00 0.421E+00 0.273E+00 0.128E+03 0.455E-06 0.426E-03 0.000E+00 0.490E-03 0.360E-11 0.140E-09 0.140E-09 0.431E-07 0.502E-07 0.280E-09 0.648E-04 0.196E-06 0.100E-11 .17143E-08 0.000E+00 0.713E-04 0.000E+00 0.000E+00 0.000E+00
BIGSUB    2        0  1 23 1983 .29418E+04 0.000E+00 0.000E+00 0.418E+00 0.273E+00 0.142E+03 0.368E-04 0.346E-05 0.000E+00 0.160E-03 0.472E-13 0.124E-09 0.124E-09 0.499E-09 0.509E-09 0.248E-09 0.156E-03 0.388E-06 0.100E-11 .62691E-18 0.000E+00 0.227E-04 0.000E+00 0.000E+00 0.000E+00
BIGSUB    3        0  1 23 1983 .52470E+04 0.000E+00 0.000E+00 0.407E+00 0.252E+00 0.174E+03 0.000E+00 0.165E-02 0.000E+00 0.185E-02 0.370E-10 0.778E-10 0.620E-10 0.193E-06 0.193E-06 0.162E-09 0.194E-03 0.928E-06 0.100E-11 .77146E-08 0.000E+00 0.268E-03 0.000E+00 0.000E+00 0.000E+00
BIGSUB    4        0  1 23 1983 .43680E+04 0.000E+00 0.000E+00 0.412E+00 0.258E+00 0.150E+03 0.452E-03 0.576E-03 0.000E+00 0.106E-02 0.426E-11 0.121E-09 0.121E-09 0.568E-07 0.670E-07 0.241E-09 0.484E-03 0.257E-05 0.100E-11 .22250E-08 0.000E+00 0.153E-03 0.000E+00 0.428E-08 0.000E+00
BIGSUB    5        0  1 23 1983 .19178E+04 0.000E+00 0.000E+00 0.429E+00 0.289E+00 0.109E+03 0.184E-06 0.257E-06 0.000E+00 0.368E-04 0.717E-13 0.168E-09 0.168E-09 0.168E-09 0.170E-09 0.336E-09 0.365E-04 0.139E-06 0.100E-11 .97948E-18 0.000E+00 0.510E-05 0.000E+00 0.000E+00 0.000E+00
BIGSUB    6        0  1 23 1983 .49397E+04 0.000E+00 0.000E+00 0.422E+00 0.265E+00 0.106E+03 0.540E-02 0.163E-04 0.000E+00 0.344E-02 0.984E-13 0.204E-09 0.204E-09 0.241E-08 0.208E-08 0.407E-09 0.343E-02 0.336E-05 0.100E-11 .45676E-10 0.000E+00 0.502E-03 0.000E+00 0.000E+00 0.000E+00
BIGSUB    7        0  1 23 1983 .23151E+04 0.000E+00 0.000E+00 0.401E+00 0.204E+00 0.149E+03 0.440E-03 0.277E-06 0.000E+00 0.319E-02 0.591E-13 0.195E-09 0.195E-09 0.197E-09 0.196E-09 0.391E-09 0.319E-02 0.476E-05 0.100E-11 .21992E-17 0.000E+00 0.464E-03 0.000E+00 0.000E+00 0.000E+00
BIGSUB    8        0  1 23 1983 .22261E+04 0.000E+00 0.000E+00 0.420E+00 0.232E+00 0.158E+03 0.708E-03 0.123E-05 0.000E+00 0.375E-02 0.607E-13 0.184E-09 0.184E-09 0.402E-09 0.322E-09 0.368E-09 0.375E-02 0.359E-05 0.100E-11 .26024E-17 0.000E+00 0.544E-03 0.000E+00 0.000E+00 0.000E+00
BIGSUB    1        0  1 24 1983 .45201E+04 0.000E+00 0.000E+00 0.363E+00 0.235E+00 0.128E+03 0.454E-06 0.394E-03 0.000E+00 0.457E-03 0.308E-11 0.140E-09 0.140E-09 0.399E-07 0.465E-07 0.280E-09 0.624E-04 0.189E-06 0.100E-11 .15888E-08 0.000E+00 0.664E-04 0.000E+00 0.000E+00 0.000E+00
BIGSUB    2        0  1 24 1983 .29418E+04 0.000E+00 0.000E+00 0.358E+00 0.234E+00 0.142E+03 0.438E-04 0.293E-05 0.000E+00 0.158E-03 0.472E-13 0.124E-09 0.124E-09 0.439E-09 0.447E-09 0.248E-09 0.155E-03 0.384E-06 0.100E-11 .67433E-18 0.000E+00 0.226E-04 0.000E+00 0.000E+00 0.000E+00
BIGSUB    3        0  1 24 1983 .52470E+04 0.000E+00 0.000E+00 0.367E+00 0.227E+00 0.174E+03 0.380E-05 0.156E-02 0.000E+00 0.175E-02 0.328E-10 0.766E-10 0.620E-10 0.182E-06 0.182E-06 0.160E-09 0.186E-03 0.894E-06 0.100E-11 .72803E-08 0.000E+00 0.253E-03 0.000E+00 0.000E+00 0.000E+00
BIGSUB    4        0  1 24 1983 .43680E+04 0.000E+00 0.000E+00 0.412E+00 0.258E+00 0.150E+03 0.609E-03 0.533E-03 0.000E+00 0.100E-02 0.363E-11 0.121E-09 0.121E-09 0.525E-07 0.620E-07 0.241E-09 0.467E-03 0.250E-05 0.100E-11 .20602E-08 0.000E+00 0.143E-03 0.000E+00 0.333E-08 0.000E+00
BIGSUB    5        0  1 24 1983 .19178E+04 0.000E+00 0.000E+00 0.364E+00 0.245E+00 0.109E+03 0.178E-06 0.237E-06 0.000E+00 0.294E-04 0.717E-13 0.168E-09 0.168E-09 0.168E-09 0.168E-09 0.336E-09 0.292E-04 0.116E-06 0.100E-11 .11507E-17 0.000E+00 0.407E-05 0.000E+00 0.000E+00 0.000E+00
BIGSUB    6        0  1 24 1983 .49397E+04 0.000E+00 0.000E+00 0.367E+00 0.230E+00 0.106E+03 0.124E-01 0.143E-04 0.000E+00 0.346E-02 0.969E-13 0.204E-09 0.204E-09 0.214E-08 0.186E-08 0.407E-09 0.344E-02 0.336E-05 0.100E-11 .22921E-10 0.000E+00 0.503E-03 0.000E+00 0.000E+00 0.000E+00
BIGSUB    7        0  1 24 1983 .23151E+04 0.000E+00 0.000E+00 0.363E+00 0.184E+00 0.149E+03 0.556E-03 0.257E-06 0.000E+00 0.330E-02 0.591E-13 0.195E-09 0.195E-09 0.195E-09 0.195E-09 0.391E-09 0.330E-02 0.487E-05 0.100E-11 .23355E-17 0.000E+00 0.481E-03 0.000E+00 0.000E+00 0.000E+00
BIGSUB    8        0  1 24 1983 .22261E+04 0.000E+00 0.000E+00 0.387E+00 0.213E+00 0.158E+03 0.790E-02 0.104E-05 0.000E+00 0.372E-02 0.607E-13 0.184E-09 0.184E-09 0.361E-09 0.295E-09 0.368E-09 0.372E-02 0.355E-05 0.100E-11 .10965E-13 0.000E+00 0.539E-03 0.000E+00 0.000E+00 0.000E+00
BIGSUB    1        0  1 25 1983 .45201E+04 0.000E+00 0.000E+00 0.649E-02 0.328E-02 0.128E+03 0.454E-06 0.365E-03 0.000E+00 0.425E-03 0.264E-11 0.140E-09 0.140E-09 0.370E-07 0.431E-07 0.280E-09 0.600E-04 0.180E-06 0.100E-11 .14724E-08 0.000E+00 0.619E-04 0.000E+00 0.000E+00 0.000E+00
BIGSUB    2        0  1 25 1983 .29418E+04 0.000E+00 0.000E+00 0.456E-01 0.298E-01 0.142E+03 0.739E-05 0.249E-05 0.000E+00 0.157E-03 0.472E-13 0.124E-09 0.124E-09 0.388E-09 0.395E-09 0.248E-09 0.154E-03 0.376E-06 0.100E-11 .72649E-18 0.000E+00 0.224E-04 0.000E+00 0.000E+00 0.000E+00
BIGSUB    3        0  1 25 1983 .52470E+04 0.000E+00 0.000E+00 0.136E+00 0.841E-01 0.174E+03 0.000E+00 0.147E-02 0.000E+00 0.165E-02 0.291E-10 0.756E-10 0.620E-10 0.172E-06 0.172E-06 0.158E-09 0.178E-03 0.865E-06 0.100E-11 .68705E-08 0.000E+00 0.239E-03 0.000E+00 0.000E+00 0.000E+00
BIGSUB    4        0  1 25 1983 .43680E+04 0.000E+00 0.000E+00 0.207E+00 0.129E+00 0.150E+03 0.283E-03 0.493E-03 0.000E+00 0.931E-03 0.310E-11 0.121E-09 0.121E-09 0.486E-07 0.574E-07 0.241E-09 0.438E-03 0.227E-05 0.100E-11 .19071E-08 0.000E+00 0.135E-03 0.000E+00 0.000E+00 0.000E+00
BIGSUB    5        0  1 25 1983 .19178E+04 0.000E+00 0.000E+00 0.124E+00 0.832E-01 0.109E+03 0.171E-06 0.221E-06 0.000E+00 0.240E-04 0.717E-13 0.168E-09 0.168E-09 0.168E-09 0.168E-09 0.336E-09 0.238E-04 0.929E-07 0.100E-11 .14048E-17 0.000E+00 0.333E-05 0.000E+00 0.000E+00 0.000E+00
BIGSUB    6        0  1 25 1983 .49397E+04 0.000E+00 0.000E+00 0.768E-01 0.480E-01 0.106E+03 0.140E-02 0.127E-04 0.000E+00 0.337E-02 0.958E-13 0.204E-09 0.204E-09 0.191E-08 0.166E-08 0.407E-09 0.336E-02 0.329E-05 0.100E-11 .22247E-10 0.000E+00 0.491E-03 0.000E+00 0.000E+00 0.000E+00
BIGSUB    7        0  1 25 1983 .23151E+04 0.000E+00 0.000E+00 0.113E+00 0.570E-01 0.149E+03 0.307E-03 0.241E-06 0.000E+00 0.316E-02 0.591E-13 0.195E-09 0.195E-09 0.195E-09 0.195E-09 0.391E-09 0.316E-02 0.470E-05 0.100E-11 .24876E-17 0.000E+00 0.460E-03 0.000E+00 0.000E+00 0.000E+00
BIGSUB    8        0  1 25 1983 .22261E+04 0.100E+00 0.000E+00 0.176E+00 0.104E+00 0.158E+03 0.703E-03 0.885E-06 0.000E+00 0.367E-02 0.607E-13 0.184E-09 0.184E-09 0.328E-09 0.273E-09 0.368E-09 0.367E-02 0.351E-05 0.100E-11 .99236E-14 0.000E+00 0.534E-03 0.000E+00 0.000E+00 0.000E+00
BIGSUB    1        0  1 26 1983 .45201E+04 0.000E+00 0.000E+00 0.152E-03 0.106E-03 0.128E+03 0.454E-06 0.339E-03 0.000E+00 0.396E-03 0.226E-11 0.140E-09 0.140E-09 0.343E-07 0.399E-07 0.280E-09 0.578E-04 0.172E-06 0.100E-11 .13645E-08 0.000E+00 0.576E-04 0.000E+00 0.000E+00 0.000E+00
BIGSUB    2        0  1 26 1983 .29418E+04 0.000E+00 0.000E+00 0.999E-04 0.700E-04 0.142E+03 0.000E+00 0.211E-05 0.000E+00 0.143E-03 0.472E-13 0.124E-09 0.124E-09 0.346E-09 0.351E-09 0.248E-09 0.141E-03 0.352E-06 0.100E-11 .78331E-18 0.000E+00 0.205E-04 0.000E+00 0.000E+00 0.000E+00
BIGSUB    3        0  1 26 1983 .52470E+04 0.000E+00 0.000E+00 0.898E-04 0.628E-04 0.174E+03 0.000E+00 0.139E-02 0.000E+00 0.156E-02 0.259E-10 0.746E-10 0.620E-10 0.162E-06 0.162E-06 0.156E-09 0.171E-03 0.837E-06 0.100E-11 .64837E-08 0.000E+00 0.226E-03 0.000E+00 0.000E+00 0.000E+00
BIGSUB    4        0  1 26 1983 .43680E+04 0.000E+00 0.000E+00 0.442E-03 0.309E-03 0.150E+03 0.235E-03 0.456E-03 0.000E+00 0.831E-03 0.264E-11 0.121E-09 0.121E-09 0.449E-07 0.531E-07 0.241E-09 0.375E-03 0.207E-05 0.100E-11 .17653E-08 0.000E+00 0.120E-03 0.000E+00 0.000E+00 0.000E+00
BIGSUB    5        0  1 26 1983 .19178E+04 0.000E+00 0.000E+00 0.107E-03 0.747E-04 0.109E+03 0.166E-06 0.209E-06 0.000E+00 0.199E-04 0.717E-13 0.168E-09 0.168E-09 0.168E-09 0.168E-09 0.336E-09 0.197E-04 0.766E-07 0.100E-11 .97182E-18 0.000E+00 0.267E-05 0.000E+00 0.000E+00 0.000E+00
BIGSUB    6        0  1 26 1983 .49397E+04 0.000E+00 0.000E+00 0.161E-03 0.113E-03 0.106E+03 0.712E-03 0.112E-04 0.000E+00 0.301E-02 0.949E-13 0.204E-09 0.204E-09 0.170E-08 0.148E-08 0.407E-09 0.300E-02 0.298E-05 0.100E-11 .21467E-10 0.000E+00 0.438E-03 0.000E+00 0.000E+00 0.000E+00
BIGSUB    7        0  1 26 1983 .23151E+04 0.000E+00 0.000E+00 0.291E-04 0.204E-04 0.149E+03 0.229E-03 0.228E-06 0.000E+00 0.280E-02 0.591E-13 0.195E-09 0.195E-09 0.195E-09 0.195E-09 0.391E-09 0.280E-02 0.440E-05 0.100E-11 .26519E-17 0.000E+00 0.408E-03 0.000E+00 0.000E+00 0.000E+00
BIGSUB    8        0  1 26 1983 .22261E+04 0.000E+00 0.000E+00 0.102E-03 0.717E-04 0.158E+03 0.675E-03 0.758E-06 0.000E+00 0.352E-02 0.607E-13 0.184E-09 0.184E-09 0.300E-09 0.255E-09 0.368E-09 0.352E-02 0.333E-05 0.100E-11 .32689E-17 0.000E+00 0.511E-03 0.000E+00 0.000E+00 0.000E+00
BIGSUB    1        0  1 27 1983 .45201E+04 0.000E+00 0.000E+00 0.152E-03 0.106E-03 0.128E+03 0.454E-06 0.314E-03 0.000E+00 0.369E-03 0.194E-11 0.140E-09 0.140E-09 0.318E-07 0.370E-07 0.280E-09 0.556E-04 0.160E-06 0.100E-11 .12646E-08 0.000E+00 0.537E-04 0.000E+00 0.000E+00 0.000E+00
BIGSUB    2        0  1 27 1983 .29418E+04 0.000E+00 0.000E+00 0.102E-03 0.717E-04 0.142E+03 0.000E+00 0.180E-05 0.000E+00 0.131E-03 0.472E-13 0.124E-09 0.124E-09 0.310E-09 0.314E-09 0.248E-09 0.129E-03 0.336E-06 0.100E-11 .84530E-18 0.000E+00 0.187E-04 0.000E+00 0.000E+00 0.000E+00
BIGSUB    3        0  1 27 1983 .52470E+04 0.000E+00 0.000E+00 0.896E-04 0.627E-04 0.174E+03 0.000E+00 0.131E-02 0.000E+00 0.147E-02 0.230E-10 0.737E-10 0.620E-10 0.153E-06 0.153E-06 0.154E-09 0.165E-03 0.810E-06 0.100E-11 .61187E-08 0.000E+00 0.214E-03 0.000E+00 0.000E+00 0.000E+00
BIGSUB    4        0  1 27 1983 .43680E+04 0.000E+00 0.000E+00 0.435E-03 0.305E-03 0.150E+03 0.234E-03 0.422E-03 0.000E+00 0.748E-03 0.226E-11 0.121E-09 0.121E-09 0.415E-07 0.491E-07 0.241E-09 0.326E-03 0.189E-05 0.100E-11 .16342E-08 0.000E+00 0.108E-03 0.000E+00 0.000E+00 0.000E+00
BIGSUB    5        0  1 27 1983 .19178E+04 0.000E+00 0.000E+00 0.110E-03 0.773E-04 0.109E+03 0.160E-06 0.199E-06 0.000E+00 0.168E-04 0.717E-13 0.168E-09 0.168E-09 0.168E-09 0.168E-09 0.336E-09 0.166E-04 0.552E-07 0.100E-11 .15368E-17 0.000E+00 0.226E-05 0.000E+00 0.000E+00 0.000E+00
BIGSUB    6        0  1 27 1983 .49397E+04 0.000E+00 0.000E+00 0.162E-03 0.114E-03 0.106E+03 0.255E-03 0.986E-05 0.000E+00 0.261E-02 0.943E-13 0.204E-09 0.204E-09 0.152E-08 0.133E-08 0.407E-09 0.260E-02 0.250E-05 0.100E-11 .20597E-10 0.000E+00 0.379E-03 0.000E+00 0.000E+00 0.000E+00
BIGSUB    7        0  1 27 1983 .23151E+04 0.000E+00 0.000E+00 0.294E-04 0.206E-04 0.149E+03 0.194E-03 0.219E-06 0.000E+00 0.248E-02 0.591E-13 0.195E-09 0.195E-09 0.195E-09 0.195E-09 0.391E-09 0.248E-02 0.412E-05 0.100E-11 .28453E-17 0.000E+00 0.362E-03 0.000E+00 0.000E+00 0.000E+00
BIGSUB    8        0  1 27 1983 .22261E+04 0.000E+00 0.000E+00 0.103E-03 0.721E-04 0.158E+03 0.663E-03 0.654E-06 0.000E+00 0.340E-02 0.607E-13 0.184E-09 0.184E-09 0.278E-09 0.241E-09 0.368E-09 0.340E-02 0.320E-05 0.100E-11 .35303E-17 0.000E+00 0.494E-03 0.000E+00 0.000E+00 0.000E+00
BIGSUB    1        0  1 28 1983 .45201E+04 0.000E+00 0.000E+00 0.269E+00 0.175E+00 0.128E+03 0.454E-06 0.291E-03 0.000E+00 0.344E-03 0.166E-11 0.140E-09 0.140E-09 0.295E-07 0.343E-07 0.280E-09 0.536E-04 0.155E-06 0.100E-11 .11720E-08 0.000E+00 0.501E-04 0.000E+00 0.000E+00 0.000E+00
BIGSUB    2        0  1 28 1983 .29418E+04 0.000E+00 0.000E+00 0.287E+00 0.188E+00 0.142E+03 0.000E+00 0.153E-05 0.000E+00 0.119E-03 0.472E-13 0.124E-09 0.124E-09 0.279E-09 0.283E-09 0.248E-09 0.118E-03 0.318E-06 0.100E-11 .91303E-18 0.000E+00 0.172E-04 0.000E+00 0.000E+00 0.000E+00
BIGSUB    3        0  1 28 1983 .52470E+04 0.000E+00 0.000E+00 0.257E+00 0.159E+00 0.174E+03 0.000E+00 0.124E-02 0.000E+00 0.139E-02 0.204E-10 0.729E-10 0.620E-10 0.144E-06 0.145E-06 0.152E-09 0.158E-03 0.784E-06 0.100E-11 .57743E-08 0.000E+00 0.202E-03 0.000E+00 0.000E+00 0.000E+00
BIGSUB    4        0  1 28 1983 .43680E+04 0.200E+00 0.000E+00 0.337E+00 0.236E+00 0.149E+03 0.233E-03 0.390E-03 0.000E+00 0.687E-03 0.193E-11 0.121E-09 0.121E-09 0.384E-07 0.454E-07 0.241E-09 0.297E-03 0.175E-05 0.100E-11 .15127E-08 0.000E+00 0.993E-04 0.000E+00 0.000E+00 0.000E+00
BIGSUB    5        0  1 28 1983 .19178E+04 0.000E+00 0.000E+00 0.357E+00 0.241E+00 0.109E+03 0.155E-06 0.191E-06 0.000E+00 0.145E-04 0.717E-13 0.168E-09 0.168E-09 0.168E-09 0.168E-09 0.336E-09 0.143E-04 0.533E-07 0.100E-11 .57163E-18 0.000E+00 0.178E-05 0.000E+00 0.000E+00 0.000E+00
BIGSUB    6        0  1 28 1983 .49397E+04 0.000E+00 0.000E+00 0.321E+00 0.201E+00 0.105E+03 0.297E-03 0.871E-05 0.000E+00 0.233E-02 0.938E-13 0.204E-09 0.204E-09 0.136E-08 0.120E-08 0.407E-09 0.232E-02 0.217E-05 0.100E-11 .19653E-10 0.000E+00 0.338E-03 0.000E+00 0.000E+00 0.000E+00
BIGSUB    7        0  1 28 1983 .23151E+04 0.000E+00 0.000E+00 0.326E+00 0.164E+00 0.148E+03 0.194E-03 0.213E-06 0.000E+00 0.229E-02 0.591E-13 0.195E-09 0.195E-09 0.195E-09 0.195E-09 0.391E-09 0.229E-02 0.396E-05 0.100E-11 .30222E-17 0.000E+00 0.334E-03 0.000E+00 0.000E+00 0.000E+00
BIGSUB    8        0  1 28 1983 .22261E+04 0.000E+00 0.000E+00 0.348E+00 0.191E+00 0.158E+03 0.661E-03 0.568E-06 0.000E+00 0.330E-02 0.607E-13 0.184E-09 0.184E-09 0.259E-09 0.229E-09 0.368E-09 0.330E-02 0.309E-05 0.100E-11 .38140E-17 0.000E+00 0.479E-03 0.000E+00 0.000E+00 0.000E+00
BIGSUB    1        0  1 29 1983 .45201E+04 0.340E+01 0.000E+00 0.409E+00 0.327E+00 0.128E+03 0.454E-06 0.269E-03 0.000E+00 0.321E-03 0.143E-11 0.140E-09 0.140E-09 0.273E-07 0.318E-07 0.280E-09 0.516E-04 0.146E-06 0.100E-11 .10861E-08 0.000E+00 0.440E-04 0.000E+00 0.000E+00 0.000E+00
BIGSUB    2        0  1 29 1983 .29418E+04 0.320E+01 0.000E+00 0.423E+00 0.344E+00 0.142E+03 0.000E+00 0.131E-05 0.000E+00 0.110E-03 0.472E-13 0.124E-09 0.124E-09 0.254E-09 0.257E-09 0.248E-09 0.108E-03 0.304E-06 0.100E-11 .98714E-18 0.000E+00 0.147E-04 0.000E+00 0.000E+00 0.000E+00
BIGSUB    3        0  1 29 1983 .52470E+04 0.260E+01 0.000E+00 0.397E+00 0.294E+00 0.174E+03 0.000E+00 0.117E-02 0.000E+00 0.132E-02 0.181E-10 0.725E-10 0.620E-10 0.136E-06 0.136E-06 0.150E-09 0.152E-03 0.758E-06 0.100E-11 .54493E-08 0.000E+00 0.177E-03 0.000E+00 0.000E+00 0.000E+00
BIGSUB    4        0  1 29 1983 .43680E+04 0.110E+01 0.000E+00 0.421E+00 0.317E+00 0.149E+03 0.236E-03 0.361E-03 0.000E+00 0.686E-03 0.165E-11 0.121E-09 0.121E-09 0.355E-07 0.420E-07 0.241E-09 0.325E-03 0.167E-05 0.100E-11 .14003E-08 0.000E+00 0.903E-04 0.000E+00 0.000E+00 0.000E+00
BIGSUB    5        0  1 29 1983 .19178E+04 0.190E+01 0.000E+00 0.453E+00 0.385E+00 0.109E+03 0.150E-06 0.185E-06 0.000E+00 0.128E-04 0.717E-13 0.168E-09 0.168E-09 0.168E-09 0.168E-09 0.336E-09 0.126E-04 0.515E-07 0.100E-11 .74829E-18 0.000E+00 0.145E-05 0.000E+00 0.000E+00 0.000E+00
BIGSUB    6        0  1 29 1983 .49397E+04 0.170E+01 0.000E+00 0.434E+00 0.336E+00 0.105E+03 0.705E-03 0.770E-05 0.000E+00 0.219E-02 0.934E-13 0.204E-09 0.204E-09 0.122E-08 0.108E-08 0.407E-09 0.218E-02 0.210E-05 0.100E-11 .20929E-17 0.000E+00 0.294E-03 0.000E+00 0.000E+00 0.000E+00
BIGSUB    7        0  1 29 1983 .23151E+04 0.100E+01 0.000E+00 0.429E+00 0.239E+00 0.148E+03 0.227E-03 0.208E-06 0.000E+00 0.216E-02 0.591E-13 0.195E-09 0.195E-09 0.195E-09 0.195E-09 0.391E-09 0.216E-02 0.383E-05 0.100E-11 .32468E-17 0.000E+00 0.290E-03 0.000E+00 0.000E+00 0.000E+00
BIGSUB    8        0  1 29 1983 .22261E+04 0.800E+00 0.000E+00 0.428E+00 0.266E+00 0.158E+03 0.669E-03 0.498E-06 0.000E+00 0.321E-02 0.607E-13 0.184E-09 0.184E-09 0.243E-09 0.218E-09 0.368E-09 0.321E-02 0.300E-05 0.100E-11 .41222E-17 0.000E+00 0.427E-03 0.000E+00 0.000E+00 0.000E+00
BIGSUB    1        0  1 30 1983 .45201E+04 0.900E+00 0.000E+00 0.271E+00 0.217E+00 0.128E+03 0.454E-06 0.250E-03 0.000E+00 0.299E-03 0.123E-11 0.140E-09 0.140E-09 0.253E-07 0.295E-07 0.280E-09 0.497E-04 0.122E-06 0.100E-11 .10066E-08 0.000E+00 0.432E-04 0.000E+00 0.000E+00 0.000E+00
BIGSUB    2        0  1 30 1983 .29418E+04 0.180E+01 0.000E+00 0.297E+00 0.241E+00 0.142E+03 0.000E+00 0.112E-05 0.000E+00 0.101E-03 0.472E-13 0.124E-09 0.124E-09 0.232E-09 0.235E-09 0.248E-09 0.996E-04 0.291E-06 0.100E-11 .10684E-17 0.000E+00 0.145E-04 0.000E+00 0.000E+00 0.000E+00
BIGSUB    3        0  1 30 1983 .52470E+04 0.380E+01 0.000E+00 0.391E+00 0.289E+00 0.174E+03 0.000E+00 0.110E-02 0.000E+00 0.125E-02 0.160E-10 0.720E-10 0.621E-10 0.129E-06 0.129E-06 0.149E-09 0.146E-03 0.730E-06 0.100E-11 .51425E-08 0.000E+00 0.181E-03 0.000E+00 0.000E+00 0.000E+00
BIGSUB    4        0  1 30 1983 .43680E+04 0.140E+01 0.000E+00 0.407E+00 0.306E+00 0.149E+03 0.235E-03 0.334E-03 0.000E+00 0.665E-03 0.141E-11 0.121E-09 0.121E-09 0.329E-07 0.389E-07 0.241E-09 0.330E-03 0.159E-05 0.100E-11 .12962E-08 0.000E+00 0.960E-04 0.000E+00 0.000E+00 0.000E+00
BIGSUB    5        0  1 30 1983 .19178E+04 0.180E+01 0.000E+00 0.329E+00 0.279E+00 0.109E+03 0.145E-06 0.179E-06 0.000E+00 0.115E-04 0.717E-13 0.168E-09 0.168E-09 0.168E-09 0.168E-09 0.336E-09 0.113E-04 0.499E-07 0.100E-11 .10590E-17 0.000E+00 0.144E-05 0.000E+00 0.000E+00 0.000E+00
BIGSUB    6        0  1 30 1983 .49397E+04 0.140E+01 0.000E+00 0.293E+00 0.226E+00 0.105E+03 0.752E-03 0.680E-05 0.000E+00 0.208E-02 0.931E-13 0.204E-09 0.204E-09 0.110E-08 0.971E-09 0.407E-09 0.208E-02 0.206E-05 0.100E-11 .22650E-17 0.000E+00 0.302E-03 0.000E+00 0.000E+00 0.000E+00
BIGSUB    7        0  1 30 1983 .23151E+04 0.400E+00 0.000E+00 0.295E+00 0.164E+00 0.148E+03 0.301E-03 0.203E-06 0.000E+00 0.230E-02 0.591E-13 0.195E-09 0.195E-09 0.195E-09 0.195E-09 0.391E-09 0.230E-02 0.391E-05 0.100E-11 .34879E-17 0.000E+00 0.335E-03 0.000E+00 0.000E+00 0.000E+00
BIGSUB    8        0  1 30 1983 .22261E+04 0.400E+00 0.000E+00 0.347E+00 0.215E+00 0.158E+03 0.668E-03 0.440E-06 0.000E+00 0.314E-02 0.607E-13 0.184E-09 0.184E-09 0.231E-09 0.210E-09 0.368E-09 0.314E-02 0.291E-05 0.100E-11 .44571E-17 0.000E+00 0.457E-03 0.000E+00 0.000E+00 0.000E+00
BIGSUB    1        0  1 31 1983 .45201E+04 0.000E+00 0.000E+00 0.628E-01 0.502E-01 0.128E+03 0.453E-06 0.231E-03 0.000E+00 0.279E-03 0.106E-11 0.140E-09 0.140E-09 0.235E-07 0.273E-07 0.280E-09 0.479E-04 0.113E-06 0.100E-11 .93286E-09 0.000E+00 0.403E-04 0.000E+00 0.000E+00 0.000E+00
BIGSUB    2        0  1 31 1983 .29418E+04 0.000E+00 0.000E+00 0.935E-01 0.760E-01 0.142E+03 0.000E+00 0.964E-06 0.000E+00 0.927E-04 0.472E-13 0.124E-09 0.124E-09 0.214E-09 0.216E-09 0.248E-09 0.918E-04 0.270E-06 0.100E-11 .11575E-17 0.000E+00 0.134E-04 0.000E+00 0.000E+00 0.000E+00
BIGSUB    3        0  1 31 1983 .52470E+04 0.000E+00 0.000E+00 0.149E+00 0.110E+00 0.174E+03 0.000E+00 0.104E-02 0.000E+00 0.118E-02 0.142E-10 0.706E-10 0.620E-10 0.121E-06 0.122E-06 0.147E-09 0.141E-03 0.707E-06 0.100E-11 .48530E-08 0.000E+00 0.171E-03 0.000E+00 0.000E+00 0.000E+00
BIGSUB    4        0  1 31 1983 .43680E+04 0.000E+00 0.000E+00 0.170E+00 0.127E+00 0.149E+03 0.234E-03 0.309E-03 0.000E+00 0.636E-03 0.121E-11 0.121E-09 0.121E-09 0.304E-07 0.360E-07 0.241E-09 0.327E-03 0.151E-05 0.100E-11 .11999E-08 0.000E+00 0.915E-04 0.000E+00 0.000E+00 0.000E+00
BIGSUB    5        0  1 31 1983 .19178E+04 0.000E+00 0.000E+00 0.151E+00 0.128E+00 0.109E+03 0.140E-06 0.175E-06 0.000E+00 0.104E-04 0.717E-13 0.168E-09 0.168E-09 0.168E-09 0.168E-09 0.336E-09 0.102E-04 0.411E-07 0.100E-11 .16199E-17 0.000E+00 0.132E-05 0.000E+00 0.000E+00 0.000E+00
BIGSUB    6        0  1 31 1983 .49397E+04 0.000E+00 0.000E+00 0.686E-01 0.530E-01 0.105E+03 0.698E-03 0.602E-05 0.000E+00 0.199E-02 0.929E-13 0.204E-09 0.204E-09 0.993E-09 0.878E-09 0.407E-09 0.198E-02 0.200E-05 0.100E-11 .24772E-17 0.000E+00 0.288E-03 0.000E+00 0.000E+00 0.000E+00
BIGSUB    7        0  1 31 1983 .23151E+04 0.000E+00 0.000E+00 0.562E-01 0.311E-01 0.148E+03 0.225E-03 0.200E-06 0.000E+00 0.212E-02 0.591E-13 0.195E-09 0.195E-09 0.195E-09 0.195E-09 0.391E-09 0.212E-02 0.376E-05 0.100E-11 .37704E-17 0.000E+00 0.310E-03 0.000E+00 0.000E+00 0.000E+00
BIGSUB    8        0  1 31 1983 .22261E+04 0.000E+00 0.000E+00 0.103E+00 0.639E-01 0.157E+03 0.666E-03 0.393E-06 0.000E+00 0.308E-02 0.607E-13 0.184E-09 0.184E-09 0.220E-09 0.203E-09 0.368E-09 0.308E-02 0.284E-05 0.100E-11 .48211E-17 0.000E+00 0.448E-03 0.000E+00 0.000E+00 0.000E+00
BIGSUB    1        0  2  1 1983 .45201E+04 0.000E+00 0.000E+00 0.103E+00 0.825E-01 0.128E+03 0.453E-06 0.214E-03 0.000E+00 0.261E-03 0.914E-12 0.140E-09 0.140E-09 0.218E-07 0.253E-07 0.280E-09 0.461E-04 0.110E-06 0.100E-11 .86454E-09 0.000E+00 0.376E-04 0.000E+00 0.000E+00 0.000E+00
BIGSUB    2        0  2  1 1983 .29418E+04 0.000E+00 0.000E+00 0.121E+00 0.980E-01 0.142E+03 0.000E+00 0.831E-06 0.000E+00 0.855E-04 0.472E-13 0.124E-09 0.124E-09 0.199E-09 0.201E-09 0.248E-09 0.847E-04 0.254E-06 0.100E-11 .12556E-17 0.000E+00 0.123E-04 0.000E+00 0.000E+00 0.000E+00
BIGSUB    3        0  2  1 1983 .52470E+04 0.000E+00 0.000E+00 0.123E+00 0.904E-01 0.174E+03 0.000E+00 0.981E-03 0.000E+00 0.112E-02 0.126E-10 0.700E-10 0.620E-10 0.115E-06 0.115E-06 0.146E-09 0.135E-03 0.684E-06 0.100E-11 .45798E-08 0.000E+00 0.162E-03 0.000E+00 0.000E+00 0.000E+00
BIGSUB    4        0  2  1 1983 .43680E+04 0.000E+00 0.000E+00 0.156E+00 0.117E+00 0.149E+03 0.230E-03 0.286E-03 0.000E+00 0.569E-03 0.103E-11 0.121E-09 0.121E-09 0.281E-07 0.333E-07 0.241E-09 0.283E-03 0.140E-05 0.100E-11 .11107E-08 0.000E+00 0.816E-04 0.000E+00 0.000E+00 0.000E+00
BIGSUB    5        0  2  1 1983 .19178E+04 0.000E+00 0.000E+00 0.163E+00 0.138E+00 0.109E+03 0.136E-06 0.172E-06 0.000E+00 0.959E-05 0.717E-13 0.168E-09 0.168E-09 0.168E-09 0.168E-09 0.336E-09 0.942E-05 0.398E-07 0.100E-11 .51129E-18 0.000E+00 0.106E-05 0.000E+00 0.000E+00 0.000E+00
BIGSUB    6        0  2  1 1983 .49397E+04 0.000E+00 0.000E+00 0.120E+00 0.927E-01 0.105E+03 0.641E-03 0.532E-05 0.000E+00 0.190E-02 0.927E-13 0.204E-09 0.204E-09 0.897E-09 0.797E-09 0.407E-09 0.190E-02 0.194E-05 0.100E-11 .20667E-17 0.000E+00 0.276E-03 0.000E+00 0.000E+00 0.000E+00
BIGSUB    7        0  2  1 1983 .23151E+04 0.000E+00 0.000E+00 0.113E+00 0.623E-01 0.148E+03 0.224E-03 0.197E-06 0.000E+00 0.200E-02 0.591E-13 0.195E-09 0.195E-09 0.195E-09 0.195E-09 0.391E-09 0.200E-02 0.365E-05 0.100E-11 .41035E-17 0.000E+00 0.292E-03 0.000E+00 0.000E+00 0.000E+00
BIGSUB    8        0  2  1 1983 .22261E+04 0.000E+00 0.000E+00 0.151E+00 0.936E-01 0.157E+03 0.664E-03 0.353E-06 0.000E+00 0.303E-02 0.607E-13 0.184E-09 0.184E-09 0.212E-09 0.198E-09 0.368E-09 0.302E-02 0.277E-05 0.100E-11 .52169E-17 0.000E+00 0.440E-03 0.000E+00 0.000E+00 0.000E+00
BIGSUB    1        0  2  2 1983 .45201E+04 0.000E+00 0.000E+00 0.227E+00 0.181E+00 0.128E+03 0.453E-06 0.199E-03 0.000E+00 0.243E-03 0.790E-12 0.140E-09 0.140E-09 0.202E-07 0.235E-07 0.280E-09 0.444E-04 0.107E-06 0.100E-11 .80122E-09 0.000E+00 0.350E-04 0.000E+00 0.000E+00 0.000E+00
BIGSUB    2        0  2  2 1983 .29418E+04 0.000E+00 0.000E+00 0.217E+00 0.176E+00 0.142E+03 0.000E+00 0.718E-06 0.000E+00 0.790E-04 0.472E-13 0.124E-09 0.124E-09 0.186E-09 0.188E-09 0.248E-09 0.783E-04 0.243E-06 0.100E-11 .13637E-17 0.000E+00 0.114E-04 0.000E+00 0.000E+00 0.000E+00
BIGSUB    3        0  2  2 1983 .52470E+04 0.000E+00 0.000E+00 0.226E+00 0.167E+00 0.174E+03 0.000E+00 0.926E-03 0.000E+00 0.106E-02 0.112E-10 0.694E-10 0.620E-10 0.108E-06 0.108E-06 0.144E-09 0.130E-03 0.662E-06 0.100E-11 .43220E-08 0.000E+00 0.153E-03 0.000E+00 0.000E+00 0.000E+00
BIGSUB    4        0  2  2 1983 .43680E+04 0.000E+00 0.000E+00 0.270E+00 0.203E+00 0.149E+03 0.229E-03 0.265E-03 0.000E+00 0.514E-03 0.885E-12 0.121E-09 0.121E-09 0.260E-07 0.308E-07 0.241E-09 0.249E-03 0.132E-05 0.100E-11 .10282E-08 0.000E+00 0.733E-04 0.000E+00 0.000E+00 0.000E+00
BIGSUB    5        0  2  2 1983 .19178E+04 0.000E+00 0.000E+00 0.242E+00 0.205E+00 0.109E+03 0.132E-06 0.169E-06 0.000E+00 0.892E-05 0.717E-13 0.168E-09 0.168E-09 0.168E-09 0.168E-09 0.336E-09 0.875E-05 0.386E-07 0.100E-11 .54383E-18 0.000E+00 0.103E-05 0.000E+00 0.000E+00 0.000E+00
BIGSUB    6        0  2  2 1983 .49397E+04 0.000E+00 0.000E+00 0.237E+00 0.183E+00 0.105E+03 0.614E-03 0.471E-05 0.000E+00 0.183E-02 0.926E-13 0.204E-09 0.204E-09 0.813E-09 0.725E-09 0.407E-09 0.183E-02 0.188E-05 0.100E-11 .23438E-17 0.000E+00 0.266E-03 0.000E+00 0.000E+00 0.000E+00
BIGSUB    7        0  2  2 1983 .23151E+04 0.000E+00 0.000E+00 0.204E+00 0.113E+00 0.148E+03 0.223E-03 0.196E-06 0.000E+00 0.191E-02 0.591E-13 0.195E-09 0.195E-09 0.195E-09 0.195E-09 0.391E-09 0.191E-02 0.355E-05 0.100E-11 .45114E-17 0.000E+00 0.278E-03 0.000E+00 0.000E+00 0.000E+00
BIGSUB    8        0  2  2 1983 .22261E+04 0.000E+00 0.000E+00 0.252E+00 0.150E+00 0.157E+03 0.662E-03 0.321E-06 0.000E+00 0.298E-02 0.607E-13 0.184E-09 0.184E-09 0.205E-09 0.194E-09 0.368E-09 0.297E-02 0.272E-05 0.100E-11 .56475E-17 0.000E+00 0.433E-03 0.000E+00 0.000E+00 0.000E+00
BIGSUB    1        0  2  3 1983 .45201E+04 0.000E+00 0.000E+00 0.110E+00 0.881E-01 0.128E+03 0.453E-06 0.184E-03 0.000E+00 0.227E-03 0.683E-12 0.140E-09 0.140E-09 0.187E-07 0.218E-07 0.280E-09 0.428E-04 0.104E-06 0.100E-11 .74254E-09 0.000E+00 0.327E-04 0.000E+00 0.000E+00 0.000E+00
BIGSUB    2        0  2  3 1983 .29418E+04 0.000E+00 0.000E+00 0.108E+00 0.880E-01 0.142E+03 0.000E+00 0.623E-06 0.000E+00 0.732E-04 0.472E-13 0.124E-09 0.124E-09 0.175E-09 0.177E-09 0.248E-09 0.726E-04 0.234E-06 0.100E-11 .11150E-17 0.000E+00 0.105E-04 0.000E+00 0.000E+00 0.000E+00
BIGSUB    3        0  2  3 1983 .52470E+04 0.000E+00 0.000E+00 0.147E+00 0.108E+00 0.174E+03 0.000E+00 0.873E-03 0.000E+00 0.999E-03 0.996E-11 0.688E-10 0.620E-10 0.102E-06 0.102E-06 0.143E-09 0.125E-03 0.636E-06 0.100E-11 .40787E-08 0.000E+00 0.145E-03 0.000E+00 0.000E+00 0.000E+00
BIGSUB    4        0  2  3 1983 .43680E+04 0.000E+00 0.000E+00 0.189E+00 0.135E+00 0.149E+03 0.228E-03 0.245E-03 0.000E+00 0.475E-03 0.760E-12 0.121E-09 0.121E-09 0.241E-07 0.285E-07 0.241E-09 0.230E-03 0.124E-05 0.100E-11 .95180E-09 0.000E+00 0.678E-04 0.000E+00 0.000E+00 0.000E+00
BIGSUB    5        0  2  3 1983 .19178E+04 0.000E+00 0.000E+00 0.124E+00 0.106E+00 0.109E+03 0.127E-06 0.168E-06 0.000E+00 0.838E-05 0.717E-13 0.168E-09 0.168E-09 0.168E-09 0.168E-09 0.336E-09 0.821E-05 0.374E-07 0.100E-11 .57843E-18 0.000E+00 0.998E-06 0.000E+00 0.000E+00 0.000E+00
BIGSUB    6        0  2  3 1983 .49397E+04 0.000E+00 0.000E+00 0.108E+00 0.835E-01 0.105E+03 0.382E-03 0.417E-05 0.000E+00 0.177E-02 0.925E-13 0.204E-09 0.204E-09 0.739E-09 0.662E-09 0.407E-09 0.176E-02 0.176E-05 0.100E-11 .23747E-17 0.000E+00 0.256E-03 0.000E+00 0.000E+00 0.000E+00
BIGSUB    7        0  2  3 1983 .23151E+04 0.000E+00 0.000E+00 0.124E+00 0.685E-01 0.148E+03 0.222E-03 0.196E-06 0.000E+00 0.183E-02 0.591E-13 0.195E-09 0.195E-09 0.195E-09 0.195E-09 0.391E-09 0.183E-02 0.343E-05 0.100E-11 .40551E-17 0.000E+00 0.267E-03 0.000E+00 0.000E+00 0.000E+00
BIGSUB    8        0  2  3 1983 .22261E+04 0.000E+00 0.000E+00 0.161E+00 0.876E-01 0.157E+03 0.660E-03 0.295E-06 0.000E+00 0.293E-02 0.607E-13 0.184E-09 0.184E-09 0.199E-09 0.191E-09 0.368E-09 0.293E-02 0.268E-05 0.100E-11 .61162E-17 0.000E+00 0.427E-03 0.000E+00 0.000E+00 0.000E+00
BIGSUB    1        0  2  4 1983 .45201E+04 0.000E+00 0.000E+00 0.313E-03 0.219E-03 0.128E+03 0.453E-06 0.171E-03 0.000E+00 0.212E-03 0.593E-12 0.140E-09 0.140E-09 0.173E-07 0.202E-07 0.280E-09 0.412E-04 0.101E-06 0.100E-11 .68816E-09 0.000E+00 0.305E-04 0.000E+00 0.000E+00 0.000E+00
BIGSUB    2        0  2  4 1983 .29418E+04 0.000E+00 0.000E+00 0.213E-03 0.149E-03 0.142E+03 0.000E+00 0.544E-06 0.000E+00 0.679E-04 0.472E-13 0.124E-09 0.124E-09 0.166E-09 0.167E-09 0.248E-09 0.674E-04 0.225E-06 0.100E-11 .12108E-17 0.000E+00 0.975E-05 0.000E+00 0.000E+00 0.000E+00
BIGSUB    3        0  2  4 1983 .52470E+04 0.000E+00 0.000E+00 0.195E-03 0.136E-03 0.174E+03 0.000E+00 0.824E-03 0.000E+00 0.945E-03 0.884E-11 0.683E-10 0.620E-10 0.963E-07 0.964E-07 0.142E-09 0.120E-03 0.616E-06 0.100E-11 .38491E-08 0.000E+00 0.137E-03 0.000E+00 0.000E+00 0.000E+00
BIGSUB    4        0  2  4 1983 .43680E+04 0.000E+00 0.000E+00 0.949E-03 0.665E-03 0.149E+03 0.227E-03 0.227E-03 0.000E+00 0.444E-03 0.653E-12 0.121E-09 0.121E-09 0.223E-07 0.264E-07 0.241E-09 0.217E-03 0.117E-05 0.100E-11 .88108E-09 0.000E+00 0.633E-04 0.000E+00 0.000E+00 0.000E+00
BIGSUB    5        0  2  4 1983 .19178E+04 0.000E+00 0.000E+00 0.225E-03 0.157E-03 0.109E+03 0.123E-06 0.168E-06 0.000E+00 0.793E-05 0.717E-13 0.168E-09 0.168E-09 0.168E-09 0.168E-09 0.336E-09 0.776E-05 0.363E-07 0.100E-11 .61523E-18 0.000E+00 0.967E-06 0.000E+00 0.000E+00 0.000E+00
BIGSUB    6        0  2  4 1983 .49397E+04 0.000E+00 0.000E+00 0.334E-03 0.234E-03 0.105E+03 0.219E-03 0.370E-05 0.000E+00 0.153E-02 0.924E-13 0.204E-09 0.204E-09 0.674E-09 0.607E-09 0.407E-09 0.153E-02 0.147E-05 0.100E-11 .27621E-17 0.000E+00 0.223E-03 0.000E+00 0.000E+00 0.000E+00
BIGSUB    7        0  2  4 1983 .23151E+04 0.000E+00 0.000E+00 0.600E-04 0.420E-04 0.148E+03 0.188E-03 0.196E-06 0.000E+00 0.172E-02 0.591E-13 0.195E-09 0.195E-09 0.195E-09 0.195E-09 0.391E-09 0.172E-02 0.333E-05 0.100E-11 .46728E-17 0.000E+00 0.251E-03 0.000E+00 0.000E+00 0.000E+00
[...]
BIGSUB    3        0 12 23 1985 .52470E+04 0.390E+01 0.000E+00 0.367E+00 0.214E+00 0.162E+03 0.160E-04 0.364E-03 0.000E+00 0.107E-02 0.406E-11 0.884E-07 0.153E-07 0.360E-07 0.631E-07 0.320E-07 0.526E-03 0.419E-06 0.100E-11 .13233E-08 0.000E+00 0.149E-03 0.000E+00 0.000E+00 0.000E+00
BIGSUB    4        0 12 23 1985 .43680E+04 0.900E+00 0.000E+00 0.424E+00 0.257E+00 0.141E+03 0.342E-03 0.776E-04 0.000E+00 0.717E-03 0.157E-12 0.121E-09 0.121E-09 0.359E-08 0.812E-08 0.245E-09 0.639E-03 0.104E-05 0.100E-11 .13797E-09 0.000E+00 0.954E-04 0.000E+00 0.000E+00 0.000E+00
BIGSUB    5        0 12 23 1985 .19178E+04 0.100E+01 0.000E+00 0.405E+00 0.301E+00 0.113E+03 0.180E-03 0.168E-06 0.000E+00 0.369E-03 0.717E-13 0.168E-09 0.168E-09 0.168E-09 0.168E-09 0.336E-09 0.368E-03 0.104E-06 0.100E-11 .25953E-17 0.000E+00 0.487E-04 0.000E+00 0.000E+00 0.000E+00
BIGSUB    6        0 12 23 1985 .49397E+04 0.200E+00 0.000E+00 0.385E+00 0.263E+00 0.128E+03 0.607E-03 0.163E-05 0.000E+00 0.480E-02 0.923E-13 0.117E-08 0.332E-09 0.265E-09 0.392E-09 0.522E-09 0.480E-02 0.344E-05 0.100E-11 .63984E-17 0.000E+00 0.653E-03 0.000E+00 0.000E+00 0.000E+00
BIGSUB    7        0 12 23 1985 .23151E+04 0.000E+00 0.000E+00 0.389E+00 0.155E+00 0.144E+03 0.369E-03 0.196E-06 0.000E+00 0.209E-02 0.591E-13 0.195E-09 0.195E-09 0.195E-09 0.195E-09 0.391E-09 0.209E-02 0.372E-05 0.100E-11 .35726E-17 0.000E+00 0.281E-03 0.000E+00 0.000E+00 0.000E+00
BIGSUB    8        0 12 23 1985 .22261E+04 0.000E+00 0.000E+00 0.400E+00 0.190E+00 0.137E+03 0.655E-03 0.184E-06 0.000E+00 0.243E-02 0.607E-13 0.184E-09 0.184E-09 0.184E-09 0.184E-09 0.368E-09 0.243E-02 0.154E-05 0.100E-11 .20898E-17 0.000E+00 0.322E-03 0.000E+00 0.000E+00 0.000E+00
BIGSUB    1        0 12 24 1985 .45201E+04 0.100E+00 0.000E+00 0.327E-04 0.229E-04 0.132E+03 0.583E-04 0.722E-04 0.000E+00 0.143E-02 0.176E-12 0.150E-09 0.140E-09 0.304E-08 0.800E-08 0.305E-09 0.136E-02 0.646E-06 0.100E-11 .11676E-09 0.000E+00 0.208E-03 0.000E+00 0.000E+00 0.000E+00
BIGSUB    2        0 12 24 1985 .29418E+04 0.300E+00 0.000E+00 0.195E-04 0.137E-04 0.143E+03 0.938E-05 0.163E-06 0.000E+00 0.359E-03 0.472E-13 0.124E-09 0.124E-09 0.124E-09 0.124E-09 0.248E-09 0.358E-03 0.112E-06 0.100E-11 .51677E-18 0.000E+00 0.520E-04 0.000E+00 0.000E+00 0.000E+00
BIGSUB    3        0 12 24 1985 .52470E+04 0.000E+00 0.000E+00 0.172E-03 0.111E-03 0.162E+03 0.159E-04 0.344E-03 0.000E+00 0.101E-02 0.361E-11 0.830E-07 0.144E-07 0.324E-07 0.579E-07 0.287E-07 0.505E-03 0.389E-06 0.100E-11 .12151E-08 0.000E+00 0.147E-03 0.000E+00 0.000E+00 0.000E+00
BIGSUB    4        0 12 24 1985 .43680E+04 0.000E+00 0.000E+00 0.107E+00 0.649E-01 0.141E+03 0.341E-03 0.718E-04 0.000E+00 0.688E-03 0.140E-12 0.121E-09 0.121E-09 0.333E-08 0.752E-08 0.244E-09 0.616E-03 0.100E-05 0.100E-11 .12778E-09 0.000E+00 0.994E-04 0.000E+00 0.000E+00 0.000E+00
BIGSUB    5        0 12 24 1985 .19178E+04 0.300E+00 0.000E+00 0.159E-01 0.118E-01 0.113E+03 0.176E-03 0.168E-06 0.000E+00 0.373E-03 0.717E-13 0.168E-09 0.168E-09 0.168E-09 0.168E-09 0.336E-09 0.373E-03 0.127E-06 0.100E-11 .31180E-17 0.000E+00 0.532E-04 0.000E+00 0.000E+00 0.000E+00
BIGSUB    6        0 12 24 1985 .49397E+04 0.100E+00 0.000E+00 0.394E-01 0.269E-01 0.128E+03 0.599E-03 0.146E-05 0.000E+00 0.481E-02 0.923E-13 0.139E-08 0.362E-09 0.258E-09 0.377E-09 0.545E-09 0.481E-02 0.349E-05 0.100E-11 .74490E-17 0.000E+00 0.701E-03 0.000E+00 0.000E+00 0.000E+00
BIGSUB    7        0 12 24 1985 .23151E+04 0.000E+00 0.000E+00 0.111E+00 0.442E-01 0.144E+03 0.283E-03 0.196E-06 0.000E+00 0.227E-02 0.591E-13 0.195E-09 0.195E-09 0.195E-09 0.195E-09 0.391E-09 0.227E-02 0.384E-05 0.100E-11 .38470E-17 0.000E+00 0.330E-03 0.000E+00 0.000E+00 0.000E+00
BIGSUB    8        0 12 24 1985 .22261E+04 0.000E+00 0.000E+00 0.158E+00 0.750E-01 0.137E+03 0.644E-03 0.184E-06 0.000E+00 0.248E-02 0.607E-13 0.184E-09 0.184E-09 0.184E-09 0.184E-09 0.368E-09 0.248E-02 0.150E-05 0.100E-11 .23327E-17 0.000E+00 0.360E-03 0.000E+00 0.000E+00 0.000E+00
BIGSUB    1        0 12 25 1985 .45201E+04 0.000E+00 0.000E+00 0.113E-03 0.792E-04 0.132E+03 0.574E-04 0.669E-04 0.000E+00 0.140E-02 0.160E-12 0.149E-09 0.140E-09 0.283E-08 0.743E-08 0.303E-09 0.133E-02 0.635E-06 0.100E-11 .10821E-09 0.000E+00 0.203E-03 0.000E+00 0.000E+00 0.000E+00
BIGSUB    2        0 12 25 1985 .29418E+04 0.000E+00 0.000E+00 0.764E-04 0.535E-04 0.143E+03 0.928E-05 0.156E-06 0.000E+00 0.340E-03 0.472E-13 0.124E-09 0.124E-09 0.124E-09 0.124E-09 0.248E-09 0.340E-03 0.110E-06 0.100E-11 .62699E-18 0.000E+00 0.494E-04 0.000E+00 0.000E+00 0.000E+00
BIGSUB    3        0 12 25 1985 .52470E+04 0.000E+00 0.000E+00 0.689E-04 0.482E-04 0.162E+03 0.159E-04 0.324E-03 0.000E+00 0.961E-03 0.321E-11 0.794E-07 0.138E-07 0.306E-07 0.547E-07 0.273E-07 0.485E-03 0.376E-06 0.100E-11 .11467E-08 0.000E+00 0.140E-03 0.000E+00 0.000E+00 0.000E+00
BIGSUB    4        0 12 25 1985 .43680E+04 0.000E+00 0.000E+00 0.312E-03 0.218E-03 0.141E+03 0.340E-03 0.665E-04 0.000E+00 0.660E-03 0.125E-12 0.121E-09 0.121E-09 0.309E-08 0.697E-08 0.243E-09 0.594E-03 0.965E-06 0.100E-11 .11834E-09 0.000E+00 0.954E-04 0.000E+00 0.000E+00 0.000E+00
BIGSUB    5        0 12 25 1985 .19178E+04 0.000E+00 0.000E+00 0.818E-04 0.573E-04 0.113E+03 0.173E-03 0.168E-06 0.000E+00 0.377E-03 0.717E-13 0.168E-09 0.168E-09 0.168E-09 0.168E-09 0.336E-09 0.377E-03 0.139E-06 0.100E-11 .36102E-17 0.000E+00 0.539E-04 0.000E+00 0.000E+00 0.000E+00
BIGSUB    6        0 12 25 1985 .49397E+04 0.000E+00 0.000E+00 0.114E-03 0.796E-04 0.128E+03 0.590E-03 0.131E-05 0.000E+00 0.480E-02 0.923E-13 0.142E-08 0.366E-09 0.251E-09 0.358E-09 0.548E-09 0.479E-02 0.351E-05 0.100E-11 .90054E-17 0.000E+00 0.698E-03 0.000E+00 0.000E+00 0.000E+00
BIGSUB    7        0 12 25 1985 .23151E+04 0.000E+00 0.000E+00 0.191E-04 0.133E-04 0.144E+03 0.807E-04 0.196E-06 0.000E+00 0.233E-02 0.591E-13 0.195E-09 0.195E-09 0.195E-09 0.195E-09 0.391E-09 0.233E-02 0.370E-05 0.100E-11 .38143E-17 0.000E+00 0.339E-03 0.000E+00 0.000E+00 0.000E+00
BIGSUB    8        0 12 25 1985 .22261E+04 0.000E+00 0.000E+00 0.689E-04 0.482E-04 0.137E+03 0.539E-03 0.184E-06 0.000E+00 0.245E-02 0.607E-13 0.184E-09 0.184E-09 0.184E-09 0.184E-09 0.368E-09 0.245E-02 0.142E-05 0.100E-11 .26312E-17 0.000E+00 0.357E-03 0.000E+00 0.000E+00 0.000E+00
BIGSUB    1        0 12 26 1985 .45201E+04 0.300E+01 0.000E+00 0.851E-01 0.570E-01 0.132E+03 0.566E-04 0.620E-04 0.000E+00 0.136E-02 0.146E-12 0.148E-09 0.140E-09 0.263E-08 0.689E-08 0.301E-09 0.130E-02 0.624E-06 0.100E-11 .10028E-09 0.000E+00 0.198E-03 0.000E+00 0.000E+00 0.000E+00
BIGSUB    2        0 12 26 1985 .29418E+04 0.240E+01 0.000E+00 0.861E-01 0.590E-01 0.143E+03 0.918E-05 0.150E-06 0.000E+00 0.323E-03 0.472E-13 0.124E-09 0.124E-09 0.124E-09 0.124E-09 0.248E-09 0.323E-03 0.107E-06 0.100E-11 .76177E-18 0.000E+00 0.469E-04 0.000E+00 0.000E+00 0.000E+00
BIGSUB    3        0 12 26 1985 .52470E+04 0.450E+01 0.000E+00 0.522E-01 0.304E-01 0.162E+03 0.158E-04 0.306E-03 0.000E+00 0.932E-03 0.285E-11 0.780E-07 0.135E-07 0.309E-07 0.538E-07 0.280E-07 0.466E-03 0.360E-06 0.100E-11 .11251E-08 0.000E+00 0.135E-03 0.000E+00 0.000E+00 0.000E+00
BIGSUB    4        0 12 26 1985 .43680E+04 0.200E+01 0.000E+00 0.112E+00 0.677E-01 0.141E+03 0.339E-03 0.615E-04 0.000E+00 0.635E-03 0.113E-12 0.121E-09 0.121E-09 0.287E-08 0.646E-08 0.243E-09 0.573E-03 0.932E-06 0.100E-11 .10977E-09 0.000E+00 0.916E-04 0.000E+00 0.000E+00 0.000E+00
BIGSUB    5        0 12 26 1985 .19178E+04 0.170E+01 0.000E+00 0.112E+00 0.835E-01 0.113E+03 0.171E-03 0.168E-06 0.000E+00 0.379E-03 0.717E-13 0.168E-09 0.168E-09 0.168E-09 0.168E-09 0.336E-09 0.379E-03 0.146E-06 0.100E-11 .60655E-17 0.000E+00 0.545E-04 0.000E+00 0.000E+00 0.000E+00
BIGSUB    6        0 12 26 1985 .49397E+04 0.130E+01 0.000E+00 0.138E+00 0.939E-01 0.128E+03 0.584E-03 0.118E-05 0.000E+00 0.479E-02 0.923E-13 0.237E-08 0.494E-09 0.102E-08 0.118E-08 0.148E-08 0.477E-02 0.351E-05 0.100E-11 .14172E-16 0.000E+00 0.695E-03 0.000E+00 0.000E+00 0.000E+00
BIGSUB    7        0 12 26 1985 .23151E+04 0.200E+01 0.000E+00 0.184E+00 0.729E-01 0.144E+03 0.169E-03 0.196E-06 0.000E+00 0.236E-02 0.591E-13 0.195E-09 0.195E-09 0.195E-09 0.195E-09 0.391E-09 0.236E-02 0.360E-05 0.100E-11 .30492E-17 0.000E+00 0.343E-03 0.000E+00 0.000E+00 0.000E+00
BIGSUB    8        0 12 26 1985 .22261E+04 0.130E+01 0.000E+00 0.213E+00 0.101E+00 0.137E+03 0.583E-03 0.184E-06 0.000E+00 0.242E-02 0.607E-13 0.184E-09 0.184E-09 0.184E-09 0.184E-09 0.368E-09 0.242E-02 0.131E-05 0.100E-11 .30158E-17 0.000E+00 0.352E-03 0.000E+00 0.000E+00 0.000E+00
BIGSUB    1        0 12 27 1985 .45201E+04 0.400E+00 0.000E+00 0.824E-01 0.551E-01 0.132E+03 0.557E-04 0.575E-04 0.000E+00 0.133E-02 0.134E-12 0.147E-09 0.140E-09 0.245E-08 0.640E-08 0.299E-09 0.127E-02 0.614E-06 0.100E-11 .92933E-10 0.000E+00 0.193E-03 0.000E+00 0.000E+00 0.000E+00
BIGSUB    2        0 12 27 1985 .29418E+04 0.100E+00 0.000E+00 0.891E-01 0.611E-01 0.143E+03 0.908E-05 0.145E-06 0.000E+00 0.307E-03 0.472E-13 0.124E-09 0.124E-09 0.124E-09 0.124E-09 0.248E-09 0.307E-03 0.105E-06 0.100E-11 .92673E-18 0.000E+00 0.446E-04 0.000E+00 0.000E+00 0.000E+00
BIGSUB    3        0 12 27 1985 .52470E+04 0.700E+00 0.000E+00 0.886E-01 0.516E-01 0.162E+03 0.157E-04 0.289E-03 0.000E+00 0.875E-03 0.253E-11 0.730E-07 0.127E-07 0.276E-07 0.491E-07 0.249E-07 0.448E-03 0.344E-06 0.100E-11 .10276E-08 0.000E+00 0.127E-03 0.000E+00 0.000E+00 0.000E+00
BIGSUB    4        0 12 27 1985 .43680E+04 0.400E+00 0.000E+00 0.130E+00 0.786E-01 0.141E+03 0.338E-03 0.570E-04 0.000E+00 0.610E-03 0.102E-12 0.121E-09 0.121E-09 0.266E-08 0.598E-08 0.243E-09 0.553E-03 0.900E-06 0.100E-11 .10163E-09 0.000E+00 0.877E-04 0.000E+00 0.000E+00 0.000E+00
BIGSUB    5        0 12 27 1985 .19178E+04 0.200E+00 0.000E+00 0.927E-01 0.689E-01 0.113E+03 0.169E-03 0.168E-06 0.000E+00 0.379E-03 0.717E-13 0.168E-09 0.168E-09 0.168E-09 0.168E-09 0.336E-09 0.379E-03 0.151E-06 0.100E-11 .32377E-17 0.000E+00 0.539E-04 0.000E+00 0.000E+00 0.000E+00
BIGSUB    6        0 12 27 1985 .49397E+04 0.000E+00 0.000E+00 0.889E-01 0.605E-01 0.128E+03 0.576E-03 0.106E-05 0.000E+00 0.474E-02 0.923E-13 0.136E-08 0.357E-09 0.240E-09 0.327E-09 0.539E-09 0.474E-02 0.351E-05 0.100E-11 .81684E-17 0.000E+00 0.690E-03 0.000E+00 0.000E+00 0.000E+00
BIGSUB    7        0 12 27 1985 .23151E+04 0.000E+00 0.000E+00 0.117E+00 0.465E-01 0.144E+03 0.280E-03 0.196E-06 0.000E+00 0.241E-02 0.591E-13 0.195E-09 0.195E-09 0.195E-09 0.195E-09 0.391E-09 0.241E-02 0.363E-05 0.100E-11 .13867E-17 0.000E+00 0.350E-03 0.000E+00 0.000E+00 0.000E+00
BIGSUB    8        0 12 27 1985 .22261E+04 0.000E+00 0.000E+00 0.159E+00 0.752E-01 0.137E+03 0.630E-03 0.184E-06 0.000E+00 0.241E-02 0.607E-13 0.184E-09 0.184E-09 0.184E-09 0.184E-09 0.368E-09 0.241E-02 0.130E-05 0.100E-11 .35440E-17 0.000E+00 0.351E-03 0.000E+00 0.000E+00 0.000E+00
BIGSUB    1        0 12 28 1985 .45201E+04 0.000E+00 0.000E+00 0.116E-02 0.789E-03 0.132E+03 0.549E-04 0.533E-04 0.000E+00 0.130E-02 0.124E-12 0.147E-09 0.140E-09 0.228E-08 0.594E-08 0.297E-09 0.124E-02 0.581E-06 0.100E-11 .86125E-10 0.000E+00 0.189E-03 0.000E+00 0.000E+00 0.000E+00
BIGSUB    2        0 12 28 1985 .29418E+04 0.000E+00 0.000E+00 0.623E-02 0.427E-02 0.143E+03 0.899E-05 0.140E-06 0.000E+00 0.292E-03 0.472E-13 0.124E-09 0.124E-09 0.124E-09 0.124E-09 0.248E-09 0.292E-03 0.102E-06 0.100E-11 .11288E-17 0.000E+00 0.425E-04 0.000E+00 0.000E+00 0.000E+00
BIGSUB    3        0 12 28 1985 .52470E+04 0.000E+00 0.000E+00 0.100E-03 0.701E-04 0.162E+03 0.157E-04 0.273E-03 0.000E+00 0.832E-03 0.225E-11 0.695E-07 0.121E-07 0.258E-07 0.461E-07 0.233E-07 0.431E-03 0.332E-06 0.100E-11 .96370E-09 0.000E+00 0.121E-03 0.000E+00 0.000E+00 0.000E+00
BIGSUB    4        0 12 28 1985 .43680E+04 0.200E+00 0.000E+00 0.333E-01 0.202E-01 0.141E+03 0.337E-03 0.527E-04 0.000E+00 0.587E-03 0.933E-13 0.121E-09 0.121E-09 0.247E-08 0.555E-08 0.242E-09 0.535E-03 0.869E-06 0.100E-11 .94088E-10 0.000E+00 0.843E-04 0.000E+00 0.000E+00 0.000E+00
BIGSUB    5        0 12 28 1985 .19178E+04 0.000E+00 0.000E+00 0.565E-01 0.420E-01 0.113E+03 0.168E-03 0.168E-06 0.000E+00 0.396E-03 0.717E-13 0.168E-09 0.168E-09 0.168E-09 0.168E-09 0.336E-09 0.396E-03 0.155E-06 0.100E-11 .33364E-17 0.000E+00 0.566E-04 0.000E+00 0.000E+00 0.000E+00
BIGSUB    6        0 12 28 1985 .49397E+04 0.000E+00 0.000E+00 0.284E-01 0.193E-01 0.128E+03 0.569E-03 0.960E-06 0.000E+00 0.470E-02 0.923E-13 0.131E-08 0.351E-09 0.235E-09 0.314E-09 0.534E-09 0.470E-02 0.350E-05 0.100E-11 .55338E-17 0.000E+00 0.684E-03 0.000E+00 0.000E+00 0.000E+00
BIGSUB    7        0 12 28 1985 .23151E+04 0.000E+00 0.000E+00 0.278E-01 0.110E-01 0.144E+03 0.363E-03 0.196E-06 0.000E+00 0.246E-02 0.591E-13 0.195E-09 0.195E-09 0.195E-09 0.195E-09 0.391E-09 0.246E-02 0.370E-05 0.100E-11 .16284E-17 0.000E+00 0.358E-03 0.000E+00 0.000E+00 0.000E+00
BIGSUB    8        0 12 28 1985 .22261E+04 0.000E+00 0.000E+00 0.443E-01 0.210E-01 0.137E+03 0.624E-03 0.184E-06 0.000E+00 0.239E-02 0.607E-13 0.184E-09 0.184E-09 0.184E-09 0.184E-09 0.368E-09 0.239E-02 0.129E-05 0.100E-11 .43210E-17 0.000E+00 0.348E-03 0.000E+00 0.000E+00 0.000E+00
BIGSUB    1        0 12 29 1985 .45201E+04 0.000E+00 0.000E+00 0.853E-01 0.570E-01 0.132E+03 0.541E-04 0.494E-04 0.000E+00 0.127E-02 0.115E-12 0.146E-09 0.140E-09 0.212E-08 0.551E-08 0.296E-09 0.122E-02 0.569E-06 0.100E-11 .79816E-10 0.000E+00 0.184E-03 0.000E+00 0.000E+00 0.000E+00
BIGSUB    2        0 12 29 1985 .29418E+04 0.000E+00 0.000E+00 0.853E-01 0.584E-01 0.143E+03 0.889E-05 0.137E-06 0.000E+00 0.279E-03 0.472E-13 0.124E-09 0.124E-09 0.124E-09 0.124E-09 0.248E-09 0.279E-03 0.999E-07 0.100E-11 .10347E-17 0.000E+00 0.405E-04 0.000E+00 0.000E+00 0.000E+00
BIGSUB    3        0 12 29 1985 .52470E+04 0.000E+00 0.000E+00 0.852E-01 0.496E-01 0.162E+03 0.156E-04 0.257E-03 0.000E+00 0.793E-03 0.200E-11 0.665E-07 0.116E-07 0.243E-07 0.435E-07 0.221E-07 0.414E-03 0.315E-06 0.100E-11 .90894E-09 0.000E+00 0.115E-03 0.000E+00 0.000E+00 0.000E+00
BIGSUB    4        0 12 29 1985 .43680E+04 0.000E+00 0.000E+00 0.993E-01 0.601E-01 0.141E+03 0.336E-03 0.488E-04 0.000E+00 0.566E-03 0.857E-13 0.121E-09 0.121E-09 0.229E-08 0.514E-08 0.242E-09 0.517E-03 0.839E-06 0.100E-11 .87109E-10 0.000E+00 0.811E-04 0.000E+00 0.000E+00 0.000E+00
BIGSUB    5        0 12 29 1985 .19178E+04 0.000E+00 0.000E+00 0.110E+00 0.819E-01 0.113E+03 0.171E-03 0.168E-06 0.000E+00 0.442E-03 0.717E-13 0.168E-09 0.168E-09 0.168E-09 0.168E-09 0.336E-09 0.442E-03 0.192E-06 0.100E-11 .24321E-17 0.000E+00 0.630E-04 0.000E+00 0.000E+00 0.000E+00
BIGSUB    6        0 12 29 1985 .49397E+04 0.000E+00 0.000E+00 0.927E-01 0.631E-01 0.128E+03 0.562E-03 0.870E-06 0.000E+00 0.465E-02 0.923E-13 0.126E-08 0.344E-09 0.231E-09 0.302E-09 0.528E-09 0.465E-02 0.348E-05 0.100E-11 .53934E-17 0.000E+00 0.677E-03 0.000E+00 0.000E+00 0.000E+00
BIGSUB    7        0 12 29 1985 .23151E+04 0.000E+00 0.000E+00 0.103E+00 0.406E-01 0.144E+03 0.361E-03 0.196E-06 0.000E+00 0.250E-02 0.591E-13 0.195E-09 0.195E-09 0.195E-09 0.195E-09 0.391E-09 0.250E-02 0.374E-05 0.100E-11 .19267E-17 0.000E+00 0.363E-03 0.000E+00 0.000E+00 0.000E+00
BIGSUB    8        0 12 29 1985 .22261E+04 0.000E+00 0.000E+00 0.119E+00 0.564E-01 0.137E+03 0.622E-03 0.184E-06 0.000E+00 0.236E-02 0.607E-13 0.184E-09 0.184E-09 0.184E-09 0.184E-09 0.368E-09 0.236E-02 0.128E-05 0.100E-11 .36657E-17 0.000E+00 0.344E-03 0.000E+00 0.000E+00 0.000E+00
BIGSUB    1        0 12 30 1985 .45201E+04 0.100E+00 0.000E+00 0.117E+00 0.784E-01 0.132E+03 0.533E-04 0.458E-04 0.000E+00 0.124E-02 0.108E-12 0.145E-09 0.140E-09 0.198E-08 0.512E-08 0.294E-09 0.119E-02 0.560E-06 0.100E-11 .73970E-10 0.000E+00 0.180E-03 0.000E+00 0.000E+00 0.000E+00
BIGSUB    2        0 12 30 1985 .29418E+04 0.000E+00 0.000E+00 0.148E+00 0.101E+00 0.143E+03 0.880E-05 0.134E-06 0.000E+00 0.266E-03 0.472E-13 0.124E-09 0.124E-09 0.124E-09 0.124E-09 0.248E-09 0.266E-03 0.976E-07 0.100E-11 .12657E-17 0.000E+00 0.387E-04 0.000E+00 0.000E+00 0.000E+00
BIGSUB    3        0 12 30 1985 .52470E+04 0.000E+00 0.000E+00 0.115E+00 0.669E-01 0.162E+03 0.155E-04 0.243E-03 0.000E+00 0.756E-03 0.178E-11 0.637E-07 0.111E-07 0.229E-07 0.411E-07 0.210E-07 0.399E-03 0.301E-06 0.100E-11 .85756E-09 0.000E+00 0.110E-03 0.000E+00 0.000E+00 0.000E+00
BIGSUB    4        0 12 30 1985 .43680E+04 0.000E+00 0.000E+00 0.145E+00 0.876E-01 0.141E+03 0.334E-03 0.452E-04 0.000E+00 0.545E-03 0.792E-13 0.121E-09 0.121E-09 0.213E-08 0.477E-08 0.241E-09 0.500E-03 0.811E-06 0.100E-11 .80648E-10 0.000E+00 0.780E-04 0.000E+00 0.000E+00 0.000E+00
BIGSUB    5        0 12 30 1985 .19178E+04 0.000E+00 0.000E+00 0.191E+00 0.142E+00 0.113E+03 0.428E-02 0.168E-06 0.000E+00 0.464E-03 0.717E-13 0.168E-09 0.168E-09 0.168E-09 0.168E-09 0.336E-09 0.464E-03 0.193E-06 0.100E-11 .29015E-17 0.000E+00 0.661E-04 0.000E+00 0.000E+00 0.000E+00
BIGSUB    6        0 12 30 1985 .49397E+04 0.000E+00 0.000E+00 0.151E+00 0.103E+00 0.128E+03 0.696E-03 0.790E-06 0.000E+00 0.469E-02 0.923E-13 0.121E-08 0.337E-09 0.227E-09 0.291E-09 0.522E-09 0.469E-02 0.349E-05 0.100E-11 .57593E-17 0.000E+00 0.683E-03 0.000E+00 0.000E+00 0.000E+00
BIGSUB    7        0 12 30 1985 .23151E+04 0.000E+00 0.000E+00 0.124E+00 0.490E-01 0.144E+03 0.359E-03 0.196E-06 0.000E+00 0.252E-02 0.591E-13 0.195E-09 0.195E-09 0.195E-09 0.195E-09 0.391E-09 0.252E-02 0.378E-05 0.100E-11 .25102E-17 0.000E+00 0.367E-03 0.000E+00 0.000E+00 0.000E+00
BIGSUB    8        0 12 30 1985 .22261E+04 0.000E+00 0.000E+00 0.130E+00 0.614E-01 0.137E+03 0.617E-03 0.184E-06 0.000E+00 0.233E-02 0.607E-13 0.184E-09 0.184E-09 0.184E-09 0.184E-09 0.368E-09 0.233E-02 0.127E-05 0.100E-11 .40491E-17 0.000E+00 0.339E-03 0.000E+00 0.000E+00 0.000E+00
BIGSUB    1        0 12 31 1985 .45201E+04 0.000E+00 0.000E+00 0.208E+00 0.139E+00 0.132E+03 0.525E-04 0.424E-04 0.000E+00 0.121E-02 0.102E-12 0.144E-09 0.140E-09 0.184E-08 0.475E-08 0.293E-09 0.117E-02 0.550E-06 0.100E-11 .68551E-10 0.000E+00 0.176E-03 0.000E+00 0.000E+00 0.000E+00
BIGSUB    2        0 12 31 1985 .29418E+04 0.000E+00 0.000E+00 0.221E+00 0.152E+00 0.143E+03 0.871E-05 0.131E-06 0.000E+00 0.255E-03 0.472E-13 0.124E-09 0.124E-09 0.124E-09 0.124E-09 0.248E-09 0.255E-03 0.954E-07 0.100E-11 .12096E-17 0.000E+00 0.370E-04 0.000E+00 0.000E+00 0.000E+00
BIGSUB    3        0 12 31 1985 .52470E+04 0.000E+00 0.000E+00 0.241E+00 0.140E+00 0.162E+03 0.155E-04 0.229E-03 0.000E+00 0.721E-03 0.158E-11 0.609E-07 0.106E-07 0.216E-07 0.388E-07 0.199E-07 0.384E-03 0.285E-06 0.100E-11 .80850E-09 0.000E+00 0.105E-03 0.000E+00 0.000E+00 0.000E+00
BIGSUB    4        0 12 31 1985 .43680E+04 0.000E+00 0.000E+00 0.310E+00 0.187E+00 0.141E+03 0.333E-03 0.418E-04 0.000E+00 0.525E-03 0.737E-13 0.121E-09 0.121E-09 0.198E-08 0.442E-08 0.241E-09 0.484E-03 0.783E-06 0.100E-11 .74668E-10 0.000E+00 0.753E-04 0.000E+00 0.000E+00 0.000E+00
BIGSUB    5        0 12 31 1985 .19178E+04 0.000E+00 0.000E+00 0.261E+00 0.194E+00 0.113E+03 0.426E-02 0.168E-06 0.000E+00 0.473E-03 0.717E-13 0.168E-09 0.168E-09 0.168E-09 0.168E-09 0.336E-09 0.473E-03 0.198E-06 0.100E-11 .34641E-17 0.000E+00 0.671E-04 0.000E+00 0.000E+00 0.000E+00
BIGSUB    6        0 12 31 1985 .49397E+04 0.000E+00 0.000E+00 0.259E+00 0.176E+00 0.128E+03 0.716E-03 0.720E-06 0.000E+00 0.474E-02 0.923E-13 0.115E-08 0.330E-09 0.224E-09 0.281E-09 0.516E-09 0.474E-02 0.352E-05 0.100E-11 .61024E-17 0.000E+00 0.690E-03 0.000E+00 0.000E+00 0.000E+00
BIGSUB    7        0 12 31 1985 .23151E+04 0.000E+00 0.000E+00 0.281E+00 0.111E+00 0.144E+03 0.193E-02 0.196E-06 0.000E+00 0.254E-02 0.591E-13 0.195E-09 0.195E-09 0.195E-09 0.195E-09 0.391E-09 0.254E-02 0.382E-05 0.100E-11 .28729E-17 0.000E+00 0.369E-03 0.000E+00 0.000E+00 0.000E+00
BIGSUB    8        0 12 31 1985 .22261E+04 0.000E+00 0.000E+00 0.319E+00 0.151E+00 0.137E+03 0.895E-03 0.184E-06 0.000E+00 0.233E-02 0.607E-13 0.184E-09 0.184E-09 0.184E-09 0.184E-09 0.368E-09 0.233E-02 0.129E-05 0.100E-11 .26846E-17 0.000E+00 0.340E-03 0.000E+00 0.000E+00 0.000E+00
